<?xml version="1.0" encoding="UTF-8"?>
<!-- generated on 2021-02-17 18:08:04.996476 by $Id$ v1_8_0+0044-4820708f3d
  options: -n 3x3grid.net.xml -p 0.33
-->
<routes xmlns:xsi="http://www.w3.org/2001/XMLSchema-instance" xsi:noNamespaceSchemaLocation="http://sumo.dlr.de/xsd/routes_file.xsd">
    <trip id="0" depart="0.00" from="n_1_r_to_n_2_1" to="n_0_0_to_n_0_1"/>
    <trip id="1" depart="0.33" from="n_0_r_to_n_2_0" to="n_0_2_to_n_0_1"/>
    <trip id="2" depart="0.66" from="n_2_0_to_n_2_1" to="n_2_0_to_n_0_r"/>
    <trip id="3" depart="0.99" from="n_2_d_to_n_2_2" to="n_0_0_to_n_1_0"/>
    <trip id="4" depart="1.32" from="n_1_1_to_n_1_0" to="n_0_0_to_n_0_l"/>
    <trip id="5" depart="1.65" from="n_0_d_to_n_0_2" to="n_1_1_to_n_1_2"/>
    <trip id="6" depart="1.98" from="n_0_0_to_n_0_1" to="n_0_1_to_n_1_l"/>
    <trip id="7" depart="2.31" from="n_1_r_to_n_2_1" to="n_1_1_to_n_2_1"/>
    <trip id="8" depart="2.64" from="n_0_d_to_n_0_2" to="n_1_2_to_n_1_1"/>
    <trip id="9" depart="2.97" from="n_2_1_to_n_2_2" to="n_0_0_to_n_0_1"/>
    <trip id="10" depart="3.30" from="n_2_1_to_n_2_2" to="n_2_0_to_n_1_0"/>
    <trip id="11" depart="3.63" from="n_1_0_to_n_1_1" to="n_0_1_to_n_0_2"/>
    <trip id="12" depart="3.96" from="n_2_r_to_n_2_2" to="n_1_0_to_n_0_0"/>
    <trip id="13" depart="4.29" from="n_0_1_to_n_0_2" to="n_0_0_to_n_1_0"/>
    <trip id="14" depart="4.62" from="n_2_2_to_n_1_2" to="n_1_2_to_n_1_1"/>
    <trip id="15" depart="4.95" from="n_2_1_to_n_2_2" to="n_2_0_to_n_2_1"/>
    <trip id="16" depart="5.28" from="n_1_2_to_n_1_1" to="n_2_2_to_n_2_r"/>
    <trip id="17" depart="5.61" from="n_1_0_to_n_2_0" to="n_1_1_to_n_2_1"/>
    <trip id="18" depart="5.94" from="n_2_1_to_n_2_2" to="n_1_2_to_n_1_d"/>
    <trip id="19" depart="6.27" from="n_2_2_to_n_2_1" to="n_1_2_to_n_0_2"/>
    <trip id="20" depart="6.60" from="n_2_0_to_n_1_0" to="n_0_0_to_n_0_l"/>
    <trip id="21" depart="6.93" from="n_0_l_to_n_0_0" to="n_0_2_to_n_1_2"/>
    <trip id="22" depart="7.26" from="n_0_1_to_n_0_0" to="n_0_2_to_n_0_1"/>
    <trip id="23" depart="7.59" from="n_0_1_to_n_0_2" to="n_0_2_to_n_1_2"/>
    <trip id="24" depart="7.92" from="n_1_l_to_n_0_1" to="n_1_0_to_n_1_1"/>
    <trip id="25" depart="8.25" from="n_1_0_to_n_2_0" to="n_0_1_to_n_1_l"/>
    <trip id="26" depart="8.58" from="n_0_r_to_n_2_0" to="n_2_2_to_n_2_1"/>
    <trip id="27" depart="8.91" from="n_1_r_to_n_2_1" to="n_1_2_to_n_1_1"/>
    <trip id="28" depart="9.24" from="n_0_2_to_n_1_2" to="n_2_0_to_n_2_1"/>
    <trip id="29" depart="9.57" from="n_0_2_to_n_0_1" to="n_1_0_to_n_1_1"/>
    <trip id="30" depart="9.90" from="n_2_u_to_n_2_0" to="n_1_2_to_n_2_2"/>
    <trip id="31" depart="10.23" from="n_1_2_to_n_2_2" to="n_2_0_to_n_0_r"/>
    <trip id="32" depart="10.56" from="n_2_2_to_n_1_2" to="n_2_0_to_n_2_u"/>
    <trip id="33" depart="10.89" from="n_0_l_to_n_0_0" to="n_0_0_to_n_0_l"/>
    <trip id="34" depart="11.22" from="n_1_0_to_n_0_0" to="n_0_2_to_n_0_d"/>
    <trip id="35" depart="11.55" from="n_0_d_to_n_0_2" to="n_2_2_to_n_2_1"/>
    <trip id="36" depart="11.88" from="n_2_2_to_n_2_1" to="n_0_2_to_n_2_l"/>
    <trip id="37" depart="12.21" from="n_1_r_to_n_2_1" to="n_1_0_to_n_1_u"/>
    <trip id="38" depart="12.54" from="n_2_d_to_n_2_2" to="n_1_1_to_n_0_1"/>
    <trip id="39" depart="12.87" from="n_0_r_to_n_2_0" to="n_0_2_to_n_0_1"/>
    <trip id="40" depart="13.20" from="n_1_2_to_n_2_2" to="n_0_2_to_n_0_d"/>
    <trip id="41" depart="13.53" from="n_1_d_to_n_1_2" to="n_2_2_to_n_1_2"/>
    <trip id="42" depart="13.86" from="n_1_1_to_n_0_1" to="n_0_1_to_n_1_l"/>
    <trip id="43" depart="14.19" from="n_2_u_to_n_2_0" to="n_1_1_to_n_1_2"/>
    <trip id="44" depart="14.52" from="n_0_1_to_n_0_2" to="n_0_0_to_n_0_l"/>
    <trip id="45" depart="14.85" from="n_0_1_to_n_0_2" to="n_1_2_to_n_1_d"/>
    <trip id="46" depart="15.18" from="n_2_1_to_n_2_0" to="n_1_0_to_n_2_0"/>
    <trip id="47" depart="15.51" from="n_0_1_to_n_0_0" to="n_1_0_to_n_1_1"/>
    <trip id="48" depart="15.84" from="n_2_u_to_n_2_0" to="n_1_1_to_n_2_1"/>
    <trip id="49" depart="16.17" from="n_2_r_to_n_2_2" to="n_2_1_to_n_2_0"/>
    <trip id="50" depart="16.50" from="n_0_0_to_n_0_1" to="n_2_0_to_n_1_0"/>
    <trip id="51" depart="16.83" from="n_1_u_to_n_1_0" to="n_1_1_to_n_2_1"/>
    <trip id="52" depart="17.16" from="n_0_r_to_n_2_0" to="n_1_2_to_n_2_2"/>
    <trip id="53" depart="17.49" from="n_0_1_to_n_1_1" to="n_1_0_to_n_2_0"/>
    <trip id="54" depart="17.82" from="n_1_1_to_n_1_2" to="n_2_2_to_n_2_d"/>
    <trip id="55" depart="18.15" from="n_2_2_to_n_2_1" to="n_0_2_to_n_0_d"/>
    <trip id="56" depart="18.48" from="n_1_2_to_n_0_2" to="n_0_1_to_n_1_1"/>
    <trip id="57" depart="18.81" from="n_2_d_to_n_2_2" to="n_2_1_to_n_2_2"/>
    <trip id="58" depart="19.14" from="n_0_u_to_n_0_0" to="n_1_2_to_n_2_2"/>
    <trip id="59" depart="19.47" from="n_1_d_to_n_1_2" to="n_0_1_to_n_0_2"/>
    <trip id="60" depart="19.80" from="n_2_1_to_n_1_1" to="n_1_1_to_n_2_1"/>
    <trip id="61" depart="20.13" from="n_2_1_to_n_2_0" to="n_1_1_to_n_2_1"/>
    <trip id="62" depart="20.46" from="n_0_0_to_n_0_1" to="n_0_2_to_n_2_l"/>
    <trip id="63" depart="20.79" from="n_0_0_to_n_0_1" to="n_2_2_to_n_2_1"/>
    <trip id="64" depart="21.12" from="n_2_2_to_n_2_1" to="n_2_1_to_n_1_r"/>
    <trip id="65" depart="21.45" from="n_1_0_to_n_0_0" to="n_0_0_to_n_0_u"/>
    <trip id="66" depart="21.78" from="n_2_2_to_n_2_1" to="n_2_2_to_n_2_d"/>
    <trip id="67" depart="22.11" from="n_0_1_to_n_0_2" to="n_1_1_to_n_1_0"/>
    <trip id="68" depart="22.44" from="n_0_1_to_n_0_0" to="n_2_0_to_n_2_u"/>
    <trip id="69" depart="22.77" from="n_2_1_to_n_1_1" to="n_0_1_to_n_0_0"/>
    <trip id="70" depart="23.10" from="n_1_1_to_n_2_1" to="n_1_1_to_n_2_1"/>
    <trip id="71" depart="23.43" from="n_0_r_to_n_2_0" to="n_2_1_to_n_2_2"/>
    <trip id="72" depart="23.76" from="n_1_1_to_n_1_0" to="n_0_1_to_n_1_l"/>
    <trip id="73" depart="24.09" from="n_1_2_to_n_1_1" to="n_2_0_to_n_2_1"/>
    <trip id="74" depart="24.42" from="n_0_d_to_n_0_2" to="n_0_2_to_n_2_l"/>
    <trip id="75" depart="24.75" from="n_2_u_to_n_2_0" to="n_1_2_to_n_2_2"/>
    <trip id="76" depart="25.08" from="n_1_1_to_n_1_0" to="n_1_1_to_n_1_2"/>
    <trip id="77" depart="25.41" from="n_0_1_to_n_1_1" to="n_0_2_to_n_0_1"/>
    <trip id="78" depart="25.74" from="n_1_0_to_n_1_1" to="n_1_2_to_n_1_1"/>
    <trip id="79" depart="26.07" from="n_0_l_to_n_0_0" to="n_0_1_to_n_1_l"/>
    <trip id="80" depart="26.40" from="n_0_1_to_n_0_0" to="n_1_2_to_n_1_d"/>
    <trip id="81" depart="26.73" from="n_0_l_to_n_0_0" to="n_2_2_to_n_1_2"/>
    <trip id="82" depart="27.06" from="n_2_2_to_n_1_2" to="n_0_0_to_n_0_u"/>
    <trip id="83" depart="27.39" from="n_0_l_to_n_0_0" to="n_2_0_to_n_0_r"/>
    <trip id="84" depart="27.72" from="n_0_d_to_n_0_2" to="n_0_1_to_n_0_0"/>
    <trip id="85" depart="28.05" from="n_2_l_to_n_0_2" to="n_1_2_to_n_0_2"/>
    <trip id="86" depart="28.38" from="n_1_1_to_n_2_1" to="n_2_1_to_n_1_1"/>
    <trip id="87" depart="28.71" from="n_2_1_to_n_2_2" to="n_0_1_to_n_1_1"/>
    <trip id="88" depart="29.04" from="n_0_1_to_n_0_2" to="n_1_0_to_n_2_0"/>
    <trip id="89" depart="29.37" from="n_1_1_to_n_1_0" to="n_1_1_to_n_0_1"/>
    <trip id="90" depart="29.70" from="n_2_0_to_n_2_1" to="n_2_0_to_n_0_r"/>
    <trip id="91" depart="30.03" from="n_2_u_to_n_2_0" to="n_0_0_to_n_1_0"/>
    <trip id="92" depart="30.36" from="n_1_1_to_n_0_1" to="n_1_0_to_n_0_0"/>
    <trip id="93" depart="30.69" from="n_2_2_to_n_2_1" to="n_0_2_to_n_0_1"/>
    <trip id="94" depart="31.02" from="n_0_2_to_n_1_2" to="n_1_1_to_n_0_1"/>
    <trip id="95" depart="31.35" from="n_1_1_to_n_1_0" to="n_0_2_to_n_1_2"/>
    <trip id="96" depart="31.68" from="n_0_l_to_n_0_0" to="n_2_2_to_n_2_1"/>
    <trip id="97" depart="32.01" from="n_1_1_to_n_1_0" to="n_2_1_to_n_2_2"/>
    <trip id="98" depart="32.34" from="n_1_2_to_n_1_1" to="n_0_0_to_n_0_l"/>
    <trip id="99" depart="32.67" from="n_2_u_to_n_2_0" to="n_2_1_to_n_2_0"/>
    <trip id="100" depart="33.00" from="n_2_r_to_n_2_2" to="n_2_2_to_n_2_1"/>
    <trip id="101" depart="33.33" from="n_2_2_to_n_1_2" to="n_0_1_to_n_0_2"/>
    <trip id="102" depart="33.66" from="n_1_1_to_n_2_1" to="n_0_1_to_n_1_l"/>
    <trip id="103" depart="33.99" from="n_1_1_to_n_0_1" to="n_0_0_to_n_0_u"/>
    <trip id="104" depart="34.32" from="n_1_0_to_n_2_0" to="n_2_2_to_n_2_r"/>
    <trip id="105" depart="34.65" from="n_0_r_to_n_2_0" to="n_2_1_to_n_1_1"/>
    <trip id="106" depart="34.98" from="n_1_1_to_n_1_2" to="n_1_0_to_n_2_0"/>
    <trip id="107" depart="35.31" from="n_2_r_to_n_2_2" to="n_2_2_to_n_2_r"/>
    <trip id="108" depart="35.64" from="n_1_2_to_n_2_2" to="n_2_0_to_n_1_0"/>
    <trip id="109" depart="35.97" from="n_0_2_to_n_0_1" to="n_0_2_to_n_1_2"/>
    <trip id="110" depart="36.30" from="n_2_r_to_n_2_2" to="n_1_2_to_n_0_2"/>
    <trip id="111" depart="36.63" from="n_1_2_to_n_1_1" to="n_2_0_to_n_2_1"/>
    <trip id="112" depart="36.96" from="n_0_1_to_n_0_0" to="n_1_2_to_n_1_1"/>
    <trip id="113" depart="37.29" from="n_1_2_to_n_0_2" to="n_2_1_to_n_2_0"/>
    <trip id="114" depart="37.62" from="n_0_2_to_n_0_1" to="n_2_2_to_n_2_d"/>
    <trip id="115" depart="37.95" from="n_0_1_to_n_0_0" to="n_0_1_to_n_1_1"/>
    <trip id="116" depart="38.28" from="n_1_d_to_n_1_2" to="n_2_0_to_n_0_r"/>
    <trip id="117" depart="38.61" from="n_0_l_to_n_0_0" to="n_0_1_to_n_0_0"/>
    <trip id="118" depart="38.94" from="n_2_d_to_n_2_2" to="n_0_2_to_n_0_1"/>
    <trip id="119" depart="39.27" from="n_1_d_to_n_1_2" to="n_1_2_to_n_1_d"/>
    <trip id="120" depart="39.60" from="n_1_1_to_n_1_0" to="n_1_2_to_n_1_1"/>
    <trip id="121" depart="39.93" from="n_1_2_to_n_0_2" to="n_2_2_to_n_2_1"/>
    <trip id="122" depart="40.26" from="n_0_d_to_n_0_2" to="n_2_0_to_n_1_0"/>
    <trip id="123" depart="40.59" from="n_0_l_to_n_0_0" to="n_1_0_to_n_1_u"/>
    <trip id="124" depart="40.92" from="n_1_u_to_n_1_0" to="n_0_2_to_n_1_2"/>
    <trip id="125" depart="41.25" from="n_1_0_to_n_0_0" to="n_2_0_to_n_2_u"/>
    <trip id="126" depart="41.58" from="n_0_1_to_n_0_0" to="n_1_1_to_n_0_1"/>
    <trip id="127" depart="41.91" from="n_2_u_to_n_2_0" to="n_2_2_to_n_2_r"/>
    <trip id="128" depart="42.24" from="n_0_1_to_n_0_0" to="n_0_1_to_n_1_l"/>
    <trip id="129" depart="42.57" from="n_0_r_to_n_2_0" to="n_2_2_to_n_2_1"/>
    <trip id="130" depart="42.90" from="n_2_2_to_n_2_1" to="n_2_1_to_n_2_2"/>
    <trip id="131" depart="43.23" from="n_1_0_to_n_2_0" to="n_0_1_to_n_0_2"/>
    <trip id="132" depart="43.56" from="n_2_2_to_n_1_2" to="n_2_0_to_n_1_0"/>
    <trip id="133" depart="43.89" from="n_1_l_to_n_0_1" to="n_2_2_to_n_2_r"/>
    <trip id="134" depart="44.22" from="n_1_r_to_n_2_1" to="n_0_0_to_n_0_1"/>
    <trip id="135" depart="44.55" from="n_2_1_to_n_2_2" to="n_0_2_to_n_1_2"/>
    <trip id="136" depart="44.88" from="n_1_r_to_n_2_1" to="n_2_2_to_n_2_1"/>
    <trip id="137" depart="45.21" from="n_0_1_to_n_1_1" to="n_0_1_to_n_0_0"/>
    <trip id="138" depart="45.54" from="n_0_1_to_n_0_2" to="n_1_1_to_n_2_1"/>
    <trip id="139" depart="45.87" from="n_0_r_to_n_2_0" to="n_1_2_to_n_1_1"/>
    <trip id="140" depart="46.20" from="n_2_0_to_n_1_0" to="n_0_1_to_n_1_l"/>
    <trip id="141" depart="46.53" from="n_1_l_to_n_0_1" to="n_0_2_to_n_0_d"/>
    <trip id="142" depart="46.86" from="n_1_1_to_n_2_1" to="n_2_2_to_n_1_2"/>
    <trip id="143" depart="47.19" from="n_2_2_to_n_1_2" to="n_0_0_to_n_1_0"/>
    <trip id="144" depart="47.52" from="n_1_1_to_n_1_0" to="n_0_2_to_n_0_d"/>
    <trip id="145" depart="47.85" from="n_0_0_to_n_0_1" to="n_2_0_to_n_2_u"/>
    <trip id="146" depart="48.18" from="n_1_l_to_n_0_1" to="n_0_2_to_n_0_d"/>
    <trip id="147" depart="48.51" from="n_2_0_to_n_2_1" to="n_1_1_to_n_2_1"/>
    <trip id="148" depart="48.84" from="n_1_1_to_n_1_0" to="n_0_0_to_n_0_1"/>
    <trip id="149" depart="49.17" from="n_0_1_to_n_0_0" to="n_2_1_to_n_2_2"/>
    <trip id="150" depart="49.50" from="n_2_d_to_n_2_2" to="n_1_1_to_n_2_1"/>
    <trip id="151" depart="49.83" from="n_2_2_to_n_1_2" to="n_1_2_to_n_0_2"/>
    <trip id="152" depart="50.16" from="n_0_2_to_n_0_1" to="n_0_1_to_n_0_0"/>
    <trip id="153" depart="50.49" from="n_1_0_to_n_0_0" to="n_2_2_to_n_1_2"/>
    <trip id="154" depart="50.82" from="n_2_1_to_n_2_0" to="n_2_1_to_n_2_0"/>
    <trip id="155" depart="51.15" from="n_2_d_to_n_2_2" to="n_0_1_to_n_1_l"/>
    <trip id="156" depart="51.48" from="n_0_l_to_n_0_0" to="n_0_0_to_n_1_0"/>
    <trip id="157" depart="51.81" from="n_2_1_to_n_2_0" to="n_2_1_to_n_2_2"/>
    <trip id="158" depart="52.14" from="n_1_1_to_n_0_1" to="n_1_2_to_n_1_d"/>
    <trip id="159" depart="52.47" from="n_0_2_to_n_0_1" to="n_2_2_to_n_2_1"/>
    <trip id="160" depart="52.80" from="n_2_2_to_n_2_1" to="n_2_2_to_n_2_r"/>
    <trip id="161" depart="53.13" from="n_2_1_to_n_2_2" to="n_2_1_to_n_2_2"/>
    <trip id="162" depart="53.46" from="n_0_0_to_n_0_1" to="n_2_0_to_n_2_1"/>
    <trip id="163" depart="53.79" from="n_1_0_to_n_0_0" to="n_2_2_to_n_2_1"/>
    <trip id="164" depart="54.12" from="n_2_1_to_n_2_0" to="n_2_1_to_n_2_2"/>
    <trip id="165" depart="54.45" from="n_2_1_to_n_2_2" to="n_0_2_to_n_0_d"/>
    <trip id="166" depart="54.78" from="n_2_1_to_n_2_0" to="n_0_0_to_n_1_0"/>
    <trip id="167" depart="55.11" from="n_2_2_to_n_2_1" to="n_2_1_to_n_2_0"/>
    <trip id="168" depart="55.44" from="n_0_l_to_n_0_0" to="n_2_1_to_n_1_r"/>
    <trip id="169" depart="55.77" from="n_1_1_to_n_1_2" to="n_0_2_to_n_1_2"/>
    <trip id="170" depart="56.10" from="n_2_1_to_n_2_0" to="n_0_2_to_n_0_1"/>
    <trip id="171" depart="56.43" from="n_0_0_to_n_0_1" to="n_0_1_to_n_1_1"/>
    <trip id="172" depart="56.76" from="n_1_0_to_n_0_0" to="n_2_1_to_n_2_2"/>
    <trip id="173" depart="57.09" from="n_2_r_to_n_2_2" to="n_0_2_to_n_1_2"/>
    <trip id="174" depart="57.42" from="n_1_r_to_n_2_1" to="n_1_0_to_n_1_u"/>
    <trip id="175" depart="57.75" from="n_2_u_to_n_2_0" to="n_1_1_to_n_2_1"/>
    <trip id="176" depart="58.08" from="n_2_l_to_n_0_2" to="n_0_1_to_n_0_0"/>
    <trip id="177" depart="58.41" from="n_2_r_to_n_2_2" to="n_0_1_to_n_1_1"/>
    <trip id="178" depart="58.74" from="n_2_r_to_n_2_2" to="n_0_2_to_n_0_d"/>
    <trip id="179" depart="59.07" from="n_0_1_to_n_0_2" to="n_1_0_to_n_2_0"/>
    <trip id="180" depart="59.40" from="n_2_0_to_n_2_1" to="n_0_2_to_n_2_l"/>
    <trip id="181" depart="59.73" from="n_1_d_to_n_1_2" to="n_1_1_to_n_1_2"/>
    <trip id="182" depart="60.06" from="n_1_0_to_n_2_0" to="n_1_2_to_n_0_2"/>
    <trip id="183" depart="60.39" from="n_0_r_to_n_2_0" to="n_2_0_to_n_1_0"/>
    <trip id="184" depart="60.72" from="n_0_0_to_n_0_1" to="n_2_2_to_n_2_1"/>
    <trip id="185" depart="61.05" from="n_1_2_to_n_1_1" to="n_2_0_to_n_1_0"/>
    <trip id="186" depart="61.38" from="n_2_0_to_n_2_1" to="n_2_0_to_n_0_r"/>
    <trip id="187" depart="61.71" from="n_1_0_to_n_2_0" to="n_0_0_to_n_0_u"/>
    <trip id="188" depart="62.04" from="n_1_r_to_n_2_1" to="n_0_2_to_n_2_l"/>
    <trip id="189" depart="62.37" from="n_1_0_to_n_0_0" to="n_2_1_to_n_2_0"/>
    <trip id="190" depart="62.70" from="n_2_0_to_n_1_0" to="n_0_2_to_n_1_2"/>
    <trip id="191" depart="63.03" from="n_1_0_to_n_0_0" to="n_1_0_to_n_1_u"/>
    <trip id="192" depart="63.36" from="n_1_1_to_n_0_1" to="n_0_2_to_n_1_2"/>
    <trip id="193" depart="63.69" from="n_0_1_to_n_1_1" to="n_1_0_to_n_2_0"/>
    <trip id="194" depart="64.02" from="n_2_l_to_n_0_2" to="n_2_0_to_n_0_r"/>
    <trip id="195" depart="64.35" from="n_2_d_to_n_2_2" to="n_1_2_to_n_1_d"/>
    <trip id="196" depart="64.68" from="n_0_u_to_n_0_0" to="n_1_1_to_n_2_1"/>
    <trip id="197" depart="65.01" from="n_0_0_to_n_0_1" to="n_0_2_to_n_1_2"/>
    <trip id="198" depart="65.34" from="n_1_1_to_n_1_0" to="n_1_2_to_n_0_2"/>
    <trip id="199" depart="65.67" from="n_1_r_to_n_2_1" to="n_1_1_to_n_0_1"/>
    <trip id="200" depart="66.00" from="n_1_1_to_n_1_0" to="n_0_1_to_n_1_l"/>
    <trip id="201" depart="66.33" from="n_1_1_to_n_2_1" to="n_2_2_to_n_1_2"/>
    <trip id="202" depart="66.66" from="n_2_1_to_n_2_0" to="n_0_1_to_n_1_1"/>
    <trip id="203" depart="66.99" from="n_0_1_to_n_0_2" to="n_1_1_to_n_1_2"/>
    <trip id="204" depart="67.32" from="n_1_l_to_n_0_1" to="n_1_0_to_n_0_0"/>
    <trip id="205" depart="67.65" from="n_2_1_to_n_2_2" to="n_2_0_to_n_2_u"/>
    <trip id="206" depart="67.98" from="n_1_u_to_n_1_0" to="n_0_2_to_n_0_1"/>
    <trip id="207" depart="68.31" from="n_0_d_to_n_0_2" to="n_0_0_to_n_0_1"/>
    <trip id="208" depart="68.64" from="n_0_l_to_n_0_0" to="n_1_1_to_n_1_0"/>
    <trip id="209" depart="68.97" from="n_2_2_to_n_1_2" to="n_0_0_to_n_0_u"/>
    <trip id="210" depart="69.30" from="n_1_1_to_n_0_1" to="n_1_2_to_n_1_d"/>
    <trip id="211" depart="69.63" from="n_0_2_to_n_1_2" to="n_2_0_to_n_1_0"/>
    <trip id="212" depart="69.96" from="n_1_1_to_n_2_1" to="n_0_2_to_n_0_1"/>
    <trip id="213" depart="70.29" from="n_1_r_to_n_2_1" to="n_0_0_to_n_0_1"/>
    <trip id="214" depart="70.62" from="n_2_1_to_n_1_1" to="n_2_0_to_n_2_u"/>
    <trip id="215" depart="70.95" from="n_0_1_to_n_0_2" to="n_1_0_to_n_2_0"/>
    <trip id="216" depart="71.28" from="n_0_2_to_n_1_2" to="n_2_2_to_n_2_d"/>
    <trip id="217" depart="71.61" from="n_1_2_to_n_0_2" to="n_0_0_to_n_0_l"/>
    <trip id="218" depart="71.94" from="n_0_l_to_n_0_0" to="n_2_1_to_n_2_0"/>
    <trip id="219" depart="72.27" from="n_1_1_to_n_1_2" to="n_2_1_to_n_1_1"/>
    <trip id="220" depart="72.60" from="n_1_u_to_n_1_0" to="n_2_2_to_n_2_r"/>
    <trip id="221" depart="72.93" from="n_1_d_to_n_1_2" to="n_2_2_to_n_2_d"/>
    <trip id="222" depart="73.26" from="n_2_d_to_n_2_2" to="n_1_2_to_n_1_d"/>
    <trip id="223" depart="73.59" from="n_2_0_to_n_1_0" to="n_1_1_to_n_1_2"/>
    <trip id="224" depart="73.92" from="n_2_1_to_n_2_2" to="n_1_1_to_n_2_1"/>
    <trip id="225" depart="74.25" from="n_2_d_to_n_2_2" to="n_2_0_to_n_2_1"/>
    <trip id="226" depart="74.58" from="n_1_1_to_n_2_1" to="n_0_2_to_n_0_d"/>
    <trip id="227" depart="74.91" from="n_0_l_to_n_0_0" to="n_1_2_to_n_1_d"/>
    <trip id="228" depart="75.24" from="n_2_1_to_n_1_1" to="n_1_1_to_n_1_2"/>
    <trip id="229" depart="75.57" from="n_1_l_to_n_0_1" to="n_0_2_to_n_0_d"/>
    <trip id="230" depart="75.90" from="n_0_1_to_n_0_0" to="n_0_2_to_n_1_2"/>
    <trip id="231" depart="76.23" from="n_0_r_to_n_2_0" to="n_0_2_to_n_2_l"/>
    <trip id="232" depart="76.56" from="n_1_2_to_n_1_1" to="n_0_1_to_n_0_0"/>
    <trip id="233" depart="76.89" from="n_0_l_to_n_0_0" to="n_2_0_to_n_0_r"/>
    <trip id="234" depart="77.22" from="n_2_0_to_n_1_0" to="n_0_0_to_n_0_u"/>
    <trip id="235" depart="77.55" from="n_1_1_to_n_0_1" to="n_1_1_to_n_2_1"/>
    <trip id="236" depart="77.88" from="n_1_1_to_n_0_1" to="n_0_1_to_n_1_l"/>
    <trip id="237" depart="78.21" from="n_1_1_to_n_1_0" to="n_2_2_to_n_1_2"/>
    <trip id="238" depart="78.54" from="n_1_d_to_n_1_2" to="n_2_0_to_n_1_0"/>
    <trip id="239" depart="78.87" from="n_2_2_to_n_1_2" to="n_2_0_to_n_2_u"/>
    <trip id="240" depart="79.20" from="n_1_0_to_n_2_0" to="n_0_0_to_n_0_1"/>
    <trip id="241" depart="79.53" from="n_1_0_to_n_1_1" to="n_2_0_to_n_2_u"/>
    <trip id="242" depart="79.86" from="n_2_2_to_n_1_2" to="n_2_2_to_n_2_d"/>
    <trip id="243" depart="80.19" from="n_1_1_to_n_1_0" to="n_2_0_to_n_2_1"/>
    <trip id="244" depart="80.52" from="n_1_2_to_n_1_1" to="n_1_2_to_n_1_1"/>
    <trip id="245" depart="80.85" from="n_0_d_to_n_0_2" to="n_0_1_to_n_1_l"/>
    <trip id="246" depart="81.18" from="n_1_1_to_n_1_0" to="n_0_0_to_n_0_l"/>
    <trip id="247" depart="81.51" from="n_1_0_to_n_1_1" to="n_2_0_to_n_0_r"/>
    <trip id="248" depart="81.84" from="n_1_1_to_n_0_1" to="n_0_1_to_n_0_2"/>
    <trip id="249" depart="82.17" from="n_1_1_to_n_1_2" to="n_0_1_to_n_0_0"/>
    <trip id="250" depart="82.50" from="n_1_l_to_n_0_1" to="n_0_0_to_n_0_1"/>
    <trip id="251" depart="82.83" from="n_1_1_to_n_0_1" to="n_1_2_to_n_0_2"/>
    <trip id="252" depart="83.16" from="n_0_0_to_n_0_1" to="n_1_2_to_n_2_2"/>
    <trip id="253" depart="83.49" from="n_0_1_to_n_1_1" to="n_1_1_to_n_0_1"/>
    <trip id="254" depart="83.82" from="n_0_0_to_n_1_0" to="n_1_0_to_n_1_1"/>
    <trip id="255" depart="84.15" from="n_0_d_to_n_0_2" to="n_0_2_to_n_2_l"/>
    <trip id="256" depart="84.48" from="n_2_1_to_n_1_1" to="n_1_0_to_n_1_1"/>
    <trip id="257" depart="84.81" from="n_2_1_to_n_1_1" to="n_2_1_to_n_1_r"/>
    <trip id="258" depart="85.14" from="n_0_r_to_n_2_0" to="n_0_0_to_n_0_u"/>
    <trip id="259" depart="85.47" from="n_0_0_to_n_0_1" to="n_1_1_to_n_2_1"/>
    <trip id="260" depart="85.80" from="n_2_u_to_n_2_0" to="n_1_0_to_n_0_0"/>
    <trip id="261" depart="86.13" from="n_1_r_to_n_2_1" to="n_2_1_to_n_1_1"/>
    <trip id="262" depart="86.46" from="n_1_r_to_n_2_1" to="n_2_0_to_n_2_u"/>
    <trip id="263" depart="86.79" from="n_2_r_to_n_2_2" to="n_0_1_to_n_1_l"/>
    <trip id="264" depart="87.12" from="n_0_0_to_n_0_1" to="n_0_1_to_n_0_2"/>
    <trip id="265" depart="87.45" from="n_0_1_to_n_1_1" to="n_2_0_to_n_0_r"/>
    <trip id="266" depart="87.78" from="n_1_2_to_n_2_2" to="n_0_1_to_n_1_l"/>
    <trip id="267" depart="88.11" from="n_2_0_to_n_1_0" to="n_2_0_to_n_2_u"/>
    <trip id="268" depart="88.44" from="n_0_2_to_n_1_2" to="n_1_2_to_n_1_1"/>
    <trip id="269" depart="88.77" from="n_2_0_to_n_2_1" to="n_0_1_to_n_0_0"/>
    <trip id="270" depart="89.10" from="n_2_1_to_n_2_2" to="n_2_2_to_n_2_d"/>
    <trip id="271" depart="89.43" from="n_0_1_to_n_0_2" to="n_0_0_to_n_0_1"/>
    <trip id="272" depart="89.76" from="n_1_0_to_n_0_0" to="n_2_0_to_n_0_r"/>
    <trip id="273" depart="90.09" from="n_2_r_to_n_2_2" to="n_1_0_to_n_1_u"/>
    <trip id="274" depart="90.42" from="n_2_0_to_n_1_0" to="n_0_0_to_n_0_u"/>
    <trip id="275" depart="90.75" from="n_1_u_to_n_1_0" to="n_1_2_to_n_1_d"/>
    <trip id="276" depart="91.08" from="n_0_1_to_n_0_2" to="n_2_0_to_n_2_u"/>
    <trip id="277" depart="91.41" from="n_2_2_to_n_1_2" to="n_1_2_to_n_1_1"/>
    <trip id="278" depart="91.74" from="n_0_1_to_n_1_1" to="n_2_2_to_n_2_r"/>
    <trip id="279" depart="92.07" from="n_2_1_to_n_2_0" to="n_1_0_to_n_0_0"/>
    <trip id="280" depart="92.40" from="n_1_1_to_n_1_0" to="n_1_0_to_n_1_1"/>
    <trip id="281" depart="92.73" from="n_1_2_to_n_0_2" to="n_1_0_to_n_0_0"/>
    <trip id="282" depart="93.06" from="n_2_2_to_n_1_2" to="n_2_1_to_n_1_r"/>
    <trip id="283" depart="93.39" from="n_0_1_to_n_0_2" to="n_2_2_to_n_2_d"/>
    <trip id="284" depart="93.72" from="n_1_l_to_n_0_1" to="n_2_1_to_n_1_r"/>
    <trip id="285" depart="94.05" from="n_2_0_to_n_1_0" to="n_1_0_to_n_2_0"/>
    <trip id="286" depart="94.38" from="n_2_0_to_n_2_1" to="n_2_2_to_n_2_d"/>
    <trip id="287" depart="94.71" from="n_0_r_to_n_2_0" to="n_2_1_to_n_1_r"/>
    <trip id="288" depart="95.04" from="n_1_2_to_n_1_1" to="n_1_1_to_n_1_0"/>
    <trip id="289" depart="95.37" from="n_1_1_to_n_1_0" to="n_2_0_to_n_2_1"/>
    <trip id="290" depart="95.70" from="n_0_r_to_n_2_0" to="n_2_1_to_n_2_0"/>
    <trip id="291" depart="96.03" from="n_2_1_to_n_2_2" to="n_0_0_to_n_1_0"/>
    <trip id="292" depart="96.36" from="n_2_2_to_n_2_1" to="n_0_2_to_n_0_1"/>
    <trip id="293" depart="96.69" from="n_1_1_to_n_1_2" to="n_1_2_to_n_1_1"/>
    <trip id="294" depart="97.02" from="n_1_0_to_n_2_0" to="n_0_0_to_n_0_l"/>
    <trip id="295" depart="97.35" from="n_2_2_to_n_1_2" to="n_0_1_to_n_1_1"/>
    <trip id="296" depart="97.68" from="n_0_d_to_n_0_2" to="n_2_1_to_n_1_1"/>
    <trip id="297" depart="98.01" from="n_1_0_to_n_1_1" to="n_2_1_to_n_2_2"/>
    <trip id="298" depart="98.34" from="n_2_0_to_n_1_0" to="n_0_2_to_n_0_d"/>
    <trip id="299" depart="98.67" from="n_0_0_to_n_0_1" to="n_2_2_to_n_2_d"/>
    <trip id="300" depart="99.00" from="n_0_1_to_n_0_2" to="n_2_0_to_n_1_0"/>
    <trip id="301" depart="99.33" from="n_1_1_to_n_2_1" to="n_2_0_to_n_2_u"/>
    <trip id="302" depart="99.66" from="n_1_u_to_n_1_0" to="n_1_2_to_n_2_2"/>
    <trip id="303" depart="99.99" from="n_1_1_to_n_2_1" to="n_2_1_to_n_1_1"/>
    <trip id="304" depart="100.32" from="n_0_1_to_n_0_2" to="n_0_1_to_n_1_l"/>
    <trip id="305" depart="100.65" from="n_1_u_to_n_1_0" to="n_0_2_to_n_2_l"/>
    <trip id="306" depart="100.98" from="n_1_2_to_n_2_2" to="n_1_1_to_n_1_0"/>
    <trip id="307" depart="101.31" from="n_1_2_to_n_1_1" to="n_1_0_to_n_2_0"/>
    <trip id="308" depart="101.64" from="n_2_0_to_n_2_1" to="n_0_2_to_n_2_l"/>
    <trip id="309" depart="101.97" from="n_2_0_to_n_1_0" to="n_0_2_to_n_0_d"/>
    <trip id="310" depart="102.30" from="n_0_r_to_n_2_0" to="n_0_1_to_n_0_0"/>
    <trip id="311" depart="102.63" from="n_0_2_to_n_1_2" to="n_0_1_to_n_0_0"/>
    <trip id="312" depart="102.96" from="n_1_2_to_n_1_1" to="n_2_0_to_n_2_u"/>
    <trip id="313" depart="103.29" from="n_0_2_to_n_1_2" to="n_0_1_to_n_1_l"/>
    <trip id="314" depart="103.62" from="n_1_1_to_n_2_1" to="n_2_0_to_n_2_1"/>
    <trip id="315" depart="103.95" from="n_2_u_to_n_2_0" to="n_1_1_to_n_1_2"/>
    <trip id="316" depart="104.28" from="n_0_u_to_n_0_0" to="n_0_0_to_n_1_0"/>
    <trip id="317" depart="104.61" from="n_0_2_to_n_1_2" to="n_0_2_to_n_0_1"/>
    <trip id="318" depart="104.94" from="n_0_2_to_n_1_2" to="n_0_0_to_n_0_1"/>
    <trip id="319" depart="105.27" from="n_1_2_to_n_1_1" to="n_0_2_to_n_0_d"/>
    <trip id="320" depart="105.60" from="n_2_u_to_n_2_0" to="n_1_1_to_n_2_1"/>
    <trip id="321" depart="105.93" from="n_2_0_to_n_1_0" to="n_0_1_to_n_0_0"/>
    <trip id="322" depart="106.26" from="n_2_2_to_n_2_1" to="n_1_1_to_n_1_0"/>
    <trip id="323" depart="106.59" from="n_2_2_to_n_2_1" to="n_1_2_to_n_0_2"/>
    <trip id="324" depart="106.92" from="n_1_1_to_n_1_2" to="n_1_0_to_n_2_0"/>
    <trip id="325" depart="107.25" from="n_0_2_to_n_1_2" to="n_0_0_to_n_0_l"/>
    <trip id="326" depart="107.58" from="n_2_l_to_n_0_2" to="n_1_1_to_n_1_0"/>
    <trip id="327" depart="107.91" from="n_2_1_to_n_2_2" to="n_1_0_to_n_1_u"/>
    <trip id="328" depart="108.24" from="n_0_1_to_n_0_0" to="n_1_2_to_n_1_d"/>
    <trip id="329" depart="108.57" from="n_0_0_to_n_1_0" to="n_0_1_to_n_0_2"/>
    <trip id="330" depart="108.90" from="n_1_2_to_n_2_2" to="n_0_2_to_n_1_2"/>
    <trip id="331" depart="109.23" from="n_2_u_to_n_2_0" to="n_0_1_to_n_0_0"/>
    <trip id="332" depart="109.56" from="n_2_1_to_n_1_1" to="n_1_2_to_n_1_1"/>
    <trip id="333" depart="109.89" from="n_2_1_to_n_2_0" to="n_0_2_to_n_0_1"/>
    <trip id="334" depart="110.22" from="n_1_2_to_n_0_2" to="n_1_1_to_n_0_1"/>
    <trip id="335" depart="110.55" from="n_1_1_to_n_1_0" to="n_2_1_to_n_2_0"/>
    <trip id="336" depart="110.88" from="n_2_u_to_n_2_0" to="n_0_2_to_n_1_2"/>
    <trip id="337" depart="111.21" from="n_1_l_to_n_0_1" to="n_1_2_to_n_1_1"/>
    <trip id="338" depart="111.54" from="n_2_0_to_n_2_1" to="n_2_2_to_n_2_d"/>
    <trip id="339" depart="111.87" from="n_0_d_to_n_0_2" to="n_0_1_to_n_1_l"/>
    <trip id="340" depart="112.20" from="n_1_r_to_n_2_1" to="n_0_1_to_n_0_2"/>
    <trip id="341" depart="112.53" from="n_0_2_to_n_1_2" to="n_0_0_to_n_0_u"/>
    <trip id="342" depart="112.86" from="n_0_0_to_n_0_1" to="n_1_1_to_n_0_1"/>
    <trip id="343" depart="113.19" from="n_1_d_to_n_1_2" to="n_0_2_to_n_1_2"/>
    <trip id="344" depart="113.52" from="n_0_l_to_n_0_0" to="n_2_0_to_n_1_0"/>
    <trip id="345" depart="113.85" from="n_2_0_to_n_1_0" to="n_1_1_to_n_0_1"/>
    <trip id="346" depart="114.18" from="n_1_u_to_n_1_0" to="n_2_2_to_n_2_1"/>
    <trip id="347" depart="114.51" from="n_2_1_to_n_2_0" to="n_1_2_to_n_1_d"/>
    <trip id="348" depart="114.84" from="n_1_r_to_n_2_1" to="n_2_2_to_n_2_1"/>
    <trip id="349" depart="115.17" from="n_1_1_to_n_1_0" to="n_1_1_to_n_2_1"/>
    <trip id="350" depart="115.50" from="n_1_r_to_n_2_1" to="n_2_2_to_n_1_2"/>
    <trip id="351" depart="115.83" from="n_2_1_to_n_2_2" to="n_0_0_to_n_0_u"/>
    <trip id="352" depart="116.16" from="n_0_2_to_n_0_1" to="n_0_2_to_n_2_l"/>
    <trip id="353" depart="116.49" from="n_2_0_to_n_2_1" to="n_1_2_to_n_0_2"/>
    <trip id="354" depart="116.82" from="n_0_u_to_n_0_0" to="n_0_1_to_n_0_0"/>
    <trip id="355" depart="117.15" from="n_1_u_to_n_1_0" to="n_2_0_to_n_1_0"/>
    <trip id="356" depart="117.48" from="n_2_l_to_n_0_2" to="n_1_1_to_n_1_2"/>
    <trip id="357" depart="117.81" from="n_1_1_to_n_2_1" to="n_0_0_to_n_0_u"/>
    <trip id="358" depart="118.14" from="n_0_0_to_n_1_0" to="n_1_0_to_n_2_0"/>
    <trip id="359" depart="118.47" from="n_1_0_to_n_0_0" to="n_0_2_to_n_0_d"/>
    <trip id="360" depart="118.80" from="n_0_1_to_n_0_2" to="n_2_2_to_n_2_d"/>
    <trip id="361" depart="119.13" from="n_2_2_to_n_1_2" to="n_1_2_to_n_0_2"/>
    <trip id="362" depart="119.46" from="n_2_r_to_n_2_2" to="n_2_2_to_n_2_r"/>
    <trip id="363" depart="119.79" from="n_1_u_to_n_1_0" to="n_0_2_to_n_0_d"/>
    <trip id="364" depart="120.12" from="n_0_0_to_n_1_0" to="n_2_0_to_n_2_u"/>
    <trip id="365" depart="120.45" from="n_1_1_to_n_1_2" to="n_1_2_to_n_2_2"/>
    <trip id="366" depart="120.78" from="n_2_d_to_n_2_2" to="n_0_1_to_n_1_1"/>
    <trip id="367" depart="121.11" from="n_1_d_to_n_1_2" to="n_1_2_to_n_1_d"/>
    <trip id="368" depart="121.44" from="n_1_1_to_n_2_1" to="n_0_0_to_n_1_0"/>
    <trip id="369" depart="121.77" from="n_1_0_to_n_1_1" to="n_0_2_to_n_2_l"/>
    <trip id="370" depart="122.10" from="n_1_u_to_n_1_0" to="n_2_1_to_n_2_0"/>
    <trip id="371" depart="122.43" from="n_1_0_to_n_0_0" to="n_2_0_to_n_0_r"/>
    <trip id="372" depart="122.76" from="n_0_u_to_n_0_0" to="n_2_2_to_n_2_d"/>
    <trip id="373" depart="123.09" from="n_2_1_to_n_2_2" to="n_1_1_to_n_2_1"/>
    <trip id="374" depart="123.42" from="n_1_1_to_n_1_2" to="n_0_2_to_n_2_l"/>
    <trip id="375" depart="123.75" from="n_1_0_to_n_0_0" to="n_2_2_to_n_2_d"/>
    <trip id="376" depart="124.08" from="n_1_1_to_n_0_1" to="n_1_1_to_n_1_2"/>
    <trip id="377" depart="124.41" from="n_2_u_to_n_2_0" to="n_1_2_to_n_2_2"/>
    <trip id="378" depart="124.74" from="n_1_2_to_n_1_1" to="n_1_0_to_n_1_u"/>
    <trip id="379" depart="125.07" from="n_0_2_to_n_1_2" to="n_1_0_to_n_1_1"/>
    <trip id="380" depart="125.40" from="n_2_1_to_n_1_1" to="n_1_2_to_n_1_d"/>