<?xml version="1.0" encoding="UTF-8"?>
<!-- generated on 2021-02-15 13:36:39.003238 by $Id$ v1_8_0+0044-4820708f3d
  options: -n Network/3x3grid.net.xml -e 3600 <doubleminus>period 0.8
-->
<routes xmlns:xsi="http://www.w3.org/2001/XMLSchema-instance" xsi:noNamespaceSchemaLocation="http://sumo.dlr.de/xsd/routes_file.xsd">
    <trip id="0" depart="0.00" from="n_1_r_to_n_2_1" to="n_0_0_to_n_0_1"/>
    <trip id="1" depart="0.80" from="n_0_r_to_n_2_0" to="n_0_2_to_n_0_1"/>
    <trip id="2" depart="1.60" from="n_2_0_to_n_2_1" to="n_2_0_to_n_0_r"/>
    <trip id="3" depart="2.40" from="n_2_d_to_n_2_2" to="n_0_0_to_n_1_0"/>
    <trip id="4" depart="3.20" from="n_1_1_to_n_1_0" to="n_0_0_to_n_0_l"/>
    <trip id="5" depart="4.00" from="n_0_d_to_n_0_2" to="n_1_1_to_n_1_2"/>
    <trip id="6" depart="4.80" from="n_0_0_to_n_0_1" to="n_0_1_to_n_1_l"/>
    <trip id="7" depart="5.60" from="n_1_r_to_n_2_1" to="n_1_1_to_n_2_1"/>
    <trip id="8" depart="6.40" from="n_0_d_to_n_0_2" to="n_1_2_to_n_1_1"/>
    <trip id="9" depart="7.20" from="n_2_1_to_n_2_2" to="n_0_0_to_n_0_1"/>
    <trip id="10" depart="8.00" from="n_2_1_to_n_2_2" to="n_2_0_to_n_1_0"/>
    <trip id="11" depart="8.80" from="n_1_0_to_n_1_1" to="n_0_1_to_n_0_2"/>
    <trip id="12" depart="9.60" from="n_2_r_to_n_2_2" to="n_1_0_to_n_0_0"/>
    <trip id="13" depart="10.40" from="n_0_1_to_n_0_2" to="n_0_0_to_n_1_0"/>
    <trip id="14" depart="11.20" from="n_2_2_to_n_1_2" to="n_1_2_to_n_1_1"/>
    <trip id="15" depart="12.00" from="n_2_1_to_n_2_2" to="n_2_0_to_n_2_1"/>
    <trip id="16" depart="12.80" from="n_1_2_to_n_1_1" to="n_2_2_to_n_2_r"/>
    <trip id="17" depart="13.60" from="n_1_0_to_n_2_0" to="n_1_1_to_n_2_1"/>
    <trip id="18" depart="14.40" from="n_2_1_to_n_2_2" to="n_1_2_to_n_1_d"/>
    <trip id="19" depart="15.20" from="n_2_2_to_n_2_1" to="n_1_2_to_n_0_2"/>
    <trip id="20" depart="16.00" from="n_2_0_to_n_1_0" to="n_0_0_to_n_0_l"/>
    <trip id="21" depart="16.80" from="n_0_l_to_n_0_0" to="n_0_2_to_n_1_2"/>
    <trip id="22" depart="17.60" from="n_0_1_to_n_0_0" to="n_0_2_to_n_0_1"/>
    <trip id="23" depart="18.40" from="n_0_1_to_n_0_2" to="n_0_2_to_n_1_2"/>
    <trip id="24" depart="19.20" from="n_1_l_to_n_0_1" to="n_1_0_to_n_1_1"/>
    <trip id="25" depart="20.00" from="n_1_0_to_n_2_0" to="n_0_1_to_n_1_l"/>
    <trip id="26" depart="20.80" from="n_0_r_to_n_2_0" to="n_2_2_to_n_2_1"/>
    <trip id="27" depart="21.60" from="n_1_r_to_n_2_1" to="n_1_2_to_n_1_1"/>
    <trip id="28" depart="22.40" from="n_0_2_to_n_1_2" to="n_2_0_to_n_2_1"/>
    <trip id="29" depart="23.20" from="n_0_2_to_n_0_1" to="n_1_0_to_n_1_1"/>
    <trip id="30" depart="24.00" from="n_2_u_to_n_2_0" to="n_1_2_to_n_2_2"/>
    <trip id="31" depart="24.80" from="n_1_2_to_n_2_2" to="n_2_0_to_n_0_r"/>
    <trip id="32" depart="25.60" from="n_2_2_to_n_1_2" to="n_2_0_to_n_2_u"/>
    <trip id="33" depart="26.40" from="n_0_l_to_n_0_0" to="n_0_0_to_n_0_l"/>
    <trip id="34" depart="27.20" from="n_1_0_to_n_0_0" to="n_0_2_to_n_0_d"/>
    <trip id="35" depart="28.00" from="n_0_d_to_n_0_2" to="n_2_2_to_n_2_1"/>
    <trip id="36" depart="28.80" from="n_2_2_to_n_2_1" to="n_0_2_to_n_2_l"/>
    <trip id="37" depart="29.60" from="n_1_r_to_n_2_1" to="n_1_0_to_n_1_u"/>
    <trip id="38" depart="30.40" from="n_2_d_to_n_2_2" to="n_1_1_to_n_0_1"/>
    <trip id="39" depart="31.20" from="n_0_r_to_n_2_0" to="n_0_2_to_n_0_1"/>
    <trip id="40" depart="32.00" from="n_1_2_to_n_2_2" to="n_0_2_to_n_0_d"/>
    <trip id="41" depart="32.80" from="n_1_d_to_n_1_2" to="n_2_2_to_n_1_2"/>
    <trip id="42" depart="33.60" from="n_1_1_to_n_0_1" to="n_0_1_to_n_1_l"/>
    <trip id="43" depart="34.40" from="n_2_u_to_n_2_0" to="n_1_1_to_n_1_2"/>
    <trip id="44" depart="35.20" from="n_0_1_to_n_0_2" to="n_0_0_to_n_0_l"/>
    <trip id="45" depart="36.00" from="n_0_1_to_n_0_2" to="n_1_2_to_n_1_d"/>
    <trip id="46" depart="36.80" from="n_2_1_to_n_2_0" to="n_1_0_to_n_2_0"/>
    <trip id="47" depart="37.60" from="n_0_1_to_n_0_0" to="n_1_0_to_n_1_1"/>
    <trip id="48" depart="38.40" from="n_2_u_to_n_2_0" to="n_1_1_to_n_2_1"/>
    <trip id="49" depart="39.20" from="n_2_r_to_n_2_2" to="n_2_1_to_n_2_0"/>
    <trip id="50" depart="40.00" from="n_0_0_to_n_0_1" to="n_2_0_to_n_1_0"/>
    <trip id="51" depart="40.80" from="n_1_u_to_n_1_0" to="n_1_1_to_n_2_1"/>
    <trip id="52" depart="41.60" from="n_0_r_to_n_2_0" to="n_1_2_to_n_2_2"/>
    <trip id="53" depart="42.40" from="n_0_1_to_n_1_1" to="n_1_0_to_n_2_0"/>
    <trip id="54" depart="43.20" from="n_1_1_to_n_1_2" to="n_2_2_to_n_2_d"/>
    <trip id="55" depart="44.00" from="n_2_2_to_n_2_1" to="n_0_2_to_n_0_d"/>
    <trip id="56" depart="44.80" from="n_1_2_to_n_0_2" to="n_0_1_to_n_1_1"/>
    <trip id="57" depart="45.60" from="n_2_d_to_n_2_2" to="n_2_1_to_n_2_2"/>
    <trip id="58" depart="46.40" from="n_0_u_to_n_0_0" to="n_1_2_to_n_2_2"/>
    <trip id="59" depart="47.20" from="n_1_d_to_n_1_2" to="n_0_1_to_n_0_2"/>
    <trip id="60" depart="48.00" from="n_2_1_to_n_1_1" to="n_1_1_to_n_2_1"/>
    <trip id="61" depart="48.80" from="n_2_1_to_n_2_0" to="n_1_1_to_n_2_1"/>
    <trip id="62" depart="49.60" from="n_0_0_to_n_0_1" to="n_0_2_to_n_2_l"/>
    <trip id="63" depart="50.40" from="n_0_0_to_n_0_1" to="n_2_2_to_n_2_1"/>
    <trip id="64" depart="51.20" from="n_2_2_to_n_2_1" to="n_2_1_to_n_1_r"/>
    <trip id="65" depart="52.00" from="n_1_0_to_n_0_0" to="n_0_0_to_n_0_u"/>
    <trip id="66" depart="52.80" from="n_2_2_to_n_2_1" to="n_2_2_to_n_2_d"/>
    <trip id="67" depart="53.60" from="n_0_1_to_n_0_2" to="n_1_1_to_n_1_0"/>
    <trip id="68" depart="54.40" from="n_0_1_to_n_0_0" to="n_2_0_to_n_2_u"/>
    <trip id="69" depart="55.20" from="n_2_1_to_n_1_1" to="n_0_1_to_n_0_0"/>
    <trip id="70" depart="56.00" from="n_1_1_to_n_2_1" to="n_1_1_to_n_2_1"/>
    <trip id="71" depart="56.80" from="n_0_r_to_n_2_0" to="n_2_1_to_n_2_2"/>
    <trip id="72" depart="57.60" from="n_1_1_to_n_1_0" to="n_0_1_to_n_1_l"/>
    <trip id="73" depart="58.40" from="n_1_2_to_n_1_1" to="n_2_0_to_n_2_1"/>
    <trip id="74" depart="59.20" from="n_0_d_to_n_0_2" to="n_0_2_to_n_2_l"/>
    <trip id="75" depart="60.00" from="n_2_u_to_n_2_0" to="n_1_2_to_n_2_2"/>
    <trip id="76" depart="60.80" from="n_1_1_to_n_1_0" to="n_1_1_to_n_1_2"/>
    <trip id="77" depart="61.60" from="n_0_1_to_n_1_1" to="n_0_2_to_n_0_1"/>
    <trip id="78" depart="62.40" from="n_1_0_to_n_1_1" to="n_1_2_to_n_1_1"/>
    <trip id="79" depart="63.20" from="n_0_l_to_n_0_0" to="n_0_1_to_n_1_l"/>
    <trip id="80" depart="64.00" from="n_0_1_to_n_0_0" to="n_1_2_to_n_1_d"/>
    <trip id="81" depart="64.80" from="n_0_l_to_n_0_0" to="n_2_2_to_n_1_2"/>
    <trip id="82" depart="65.60" from="n_2_2_to_n_1_2" to="n_0_0_to_n_0_u"/>
    <trip id="83" depart="66.40" from="n_0_l_to_n_0_0" to="n_2_0_to_n_0_r"/>
    <trip id="84" depart="67.20" from="n_0_d_to_n_0_2" to="n_0_1_to_n_0_0"/>
    <trip id="85" depart="68.00" from="n_2_l_to_n_0_2" to="n_1_2_to_n_0_2"/>
    <trip id="86" depart="68.80" from="n_1_1_to_n_2_1" to="n_2_1_to_n_1_1"/>
    <trip id="87" depart="69.60" from="n_2_1_to_n_2_2" to="n_0_1_to_n_1_1"/>
    <trip id="88" depart="70.40" from="n_0_1_to_n_0_2" to="n_1_0_to_n_2_0"/>
    <trip id="89" depart="71.20" from="n_1_1_to_n_1_0" to="n_1_1_to_n_0_1"/>
    <trip id="90" depart="72.00" from="n_2_0_to_n_2_1" to="n_2_0_to_n_0_r"/>
    <trip id="91" depart="72.80" from="n_2_u_to_n_2_0" to="n_0_0_to_n_1_0"/>
    <trip id="92" depart="73.60" from="n_1_1_to_n_0_1" to="n_1_0_to_n_0_0"/>
    <trip id="93" depart="74.40" from="n_2_2_to_n_2_1" to="n_0_2_to_n_0_1"/>
    <trip id="94" depart="75.20" from="n_0_2_to_n_1_2" to="n_1_1_to_n_0_1"/>
    <trip id="95" depart="76.00" from="n_1_1_to_n_1_0" to="n_0_2_to_n_1_2"/>
    <trip id="96" depart="76.80" from="n_0_l_to_n_0_0" to="n_2_2_to_n_2_1"/>
    <trip id="97" depart="77.60" from="n_1_1_to_n_1_0" to="n_2_1_to_n_2_2"/>
    <trip id="98" depart="78.40" from="n_1_2_to_n_1_1" to="n_0_0_to_n_0_l"/>
    <trip id="99" depart="79.20" from="n_2_u_to_n_2_0" to="n_2_1_to_n_2_0"/>
    <trip id="100" depart="80.00" from="n_2_r_to_n_2_2" to="n_2_2_to_n_2_1"/>
    <trip id="101" depart="80.80" from="n_2_2_to_n_1_2" to="n_0_1_to_n_0_2"/>
    <trip id="102" depart="81.60" from="n_1_1_to_n_2_1" to="n_0_1_to_n_1_l"/>
    <trip id="103" depart="82.40" from="n_1_1_to_n_0_1" to="n_0_0_to_n_0_u"/>
    <trip id="104" depart="83.20" from="n_1_0_to_n_2_0" to="n_2_2_to_n_2_r"/>
    <trip id="105" depart="84.00" from="n_0_r_to_n_2_0" to="n_2_1_to_n_1_1"/>
    <trip id="106" depart="84.80" from="n_1_1_to_n_1_2" to="n_1_0_to_n_2_0"/>
    <trip id="107" depart="85.60" from="n_2_r_to_n_2_2" to="n_2_2_to_n_2_r"/>
    <trip id="108" depart="86.40" from="n_1_2_to_n_2_2" to="n_2_0_to_n_1_0"/>
    <trip id="109" depart="87.20" from="n_0_2_to_n_0_1" to="n_0_2_to_n_1_2"/>
    <trip id="110" depart="88.00" from="n_2_r_to_n_2_2" to="n_1_2_to_n_0_2"/>
    <trip id="111" depart="88.80" from="n_1_2_to_n_1_1" to="n_2_0_to_n_2_1"/>
    <trip id="112" depart="89.60" from="n_0_1_to_n_0_0" to="n_1_2_to_n_1_1"/>
    <trip id="113" depart="90.40" from="n_1_2_to_n_0_2" to="n_2_1_to_n_2_0"/>
    <trip id="114" depart="91.20" from="n_0_2_to_n_0_1" to="n_2_2_to_n_2_d"/>
    <trip id="115" depart="92.00" from="n_0_1_to_n_0_0" to="n_0_1_to_n_1_1"/>
    <trip id="116" depart="92.80" from="n_1_d_to_n_1_2" to="n_2_0_to_n_0_r"/>
    <trip id="117" depart="93.60" from="n_0_l_to_n_0_0" to="n_0_1_to_n_0_0"/>
    <trip id="118" depart="94.40" from="n_2_d_to_n_2_2" to="n_0_2_to_n_0_1"/>
    <trip id="119" depart="95.20" from="n_1_d_to_n_1_2" to="n_1_2_to_n_1_d"/>
    <trip id="120" depart="96.00" from="n_1_1_to_n_1_0" to="n_1_2_to_n_1_1"/>
    <trip id="121" depart="96.80" from="n_1_2_to_n_0_2" to="n_2_2_to_n_2_1"/>
    <trip id="122" depart="97.60" from="n_0_d_to_n_0_2" to="n_2_0_to_n_1_0"/>
    <trip id="123" depart="98.40" from="n_0_l_to_n_0_0" to="n_1_0_to_n_1_u"/>
    <trip id="124" depart="99.20" from="n_1_u_to_n_1_0" to="n_0_2_to_n_1_2"/>
    <trip id="125" depart="100.00" from="n_1_0_to_n_0_0" to="n_2_0_to_n_2_u"/>
    <trip id="126" depart="100.80" from="n_0_1_to_n_0_0" to="n_1_1_to_n_0_1"/>
    <trip id="127" depart="101.60" from="n_2_u_to_n_2_0" to="n_2_2_to_n_2_r"/>
    <trip id="128" depart="102.40" from="n_0_1_to_n_0_0" to="n_0_1_to_n_1_l"/>
    <trip id="129" depart="103.20" from="n_0_r_to_n_2_0" to="n_2_2_to_n_2_1"/>
    <trip id="130" depart="104.00" from="n_2_2_to_n_2_1" to="n_2_1_to_n_2_2"/>
    <trip id="131" depart="104.80" from="n_1_0_to_n_2_0" to="n_0_1_to_n_0_2"/>
    <trip id="132" depart="105.60" from="n_2_2_to_n_1_2" to="n_2_0_to_n_1_0"/>
    <trip id="133" depart="106.40" from="n_1_l_to_n_0_1" to="n_2_2_to_n_2_r"/>
    <trip id="134" depart="107.20" from="n_1_r_to_n_2_1" to="n_0_0_to_n_0_1"/>
    <trip id="135" depart="108.00" from="n_2_1_to_n_2_2" to="n_0_2_to_n_1_2"/>
    <trip id="136" depart="108.80" from="n_1_r_to_n_2_1" to="n_2_2_to_n_2_1"/>
    <trip id="137" depart="109.60" from="n_0_1_to_n_1_1" to="n_0_1_to_n_0_0"/>
    <trip id="138" depart="110.40" from="n_0_1_to_n_0_2" to="n_1_1_to_n_2_1"/>
    <trip id="139" depart="111.20" from="n_0_r_to_n_2_0" to="n_1_2_to_n_1_1"/>
    <trip id="140" depart="112.00" from="n_2_0_to_n_1_0" to="n_0_1_to_n_1_l"/>
    <trip id="141" depart="112.80" from="n_1_l_to_n_0_1" to="n_0_2_to_n_0_d"/>
    <trip id="142" depart="113.60" from="n_1_1_to_n_2_1" to="n_2_2_to_n_1_2"/>
    <trip id="143" depart="114.40" from="n_2_2_to_n_1_2" to="n_0_0_to_n_1_0"/>
    <trip id="144" depart="115.20" from="n_1_1_to_n_1_0" to="n_0_2_to_n_0_d"/>
    <trip id="145" depart="116.00" from="n_0_0_to_n_0_1" to="n_2_0_to_n_2_u"/>
    <trip id="146" depart="116.80" from="n_1_l_to_n_0_1" to="n_0_2_to_n_0_d"/>
    <trip id="147" depart="117.60" from="n_2_0_to_n_2_1" to="n_1_1_to_n_2_1"/>
    <trip id="148" depart="118.40" from="n_1_1_to_n_1_0" to="n_0_0_to_n_0_1"/>
    <trip id="149" depart="119.20" from="n_0_1_to_n_0_0" to="n_2_1_to_n_2_2"/>
    <trip id="150" depart="120.00" from="n_2_d_to_n_2_2" to="n_1_1_to_n_2_1"/>
    <trip id="151" depart="120.80" from="n_2_2_to_n_1_2" to="n_1_2_to_n_0_2"/>
    <trip id="152" depart="121.60" from="n_0_2_to_n_0_1" to="n_0_1_to_n_0_0"/>
    <trip id="153" depart="122.40" from="n_1_0_to_n_0_0" to="n_2_2_to_n_1_2"/>
    <trip id="154" depart="123.20" from="n_2_1_to_n_2_0" to="n_2_1_to_n_2_0"/>
    <trip id="155" depart="124.00" from="n_2_d_to_n_2_2" to="n_0_1_to_n_1_l"/>
    <trip id="156" depart="124.80" from="n_0_l_to_n_0_0" to="n_0_0_to_n_1_0"/>
    <trip id="157" depart="125.60" from="n_2_1_to_n_2_0" to="n_2_1_to_n_2_2"/>
    <trip id="158" depart="126.40" from="n_1_1_to_n_0_1" to="n_1_2_to_n_1_d"/>
    <trip id="159" depart="127.20" from="n_0_2_to_n_0_1" to="n_2_2_to_n_2_1"/>
    <trip id="160" depart="128.00" from="n_2_2_to_n_2_1" to="n_2_2_to_n_2_r"/>
    <trip id="161" depart="128.80" from="n_2_1_to_n_2_2" to="n_2_1_to_n_2_2"/>
    <trip id="162" depart="129.60" from="n_0_0_to_n_0_1" to="n_2_0_to_n_2_1"/>
    <trip id="163" depart="130.40" from="n_1_0_to_n_0_0" to="n_2_2_to_n_2_1"/>
    <trip id="164" depart="131.20" from="n_2_1_to_n_2_0" to="n_2_1_to_n_2_2"/>
    <trip id="165" depart="132.00" from="n_2_1_to_n_2_2" to="n_0_2_to_n_0_d"/>
    <trip id="166" depart="132.80" from="n_2_1_to_n_2_0" to="n_0_0_to_n_1_0"/>
    <trip id="167" depart="133.60" from="n_2_2_to_n_2_1" to="n_2_1_to_n_2_0"/>
    <trip id="168" depart="134.40" from="n_0_l_to_n_0_0" to="n_2_1_to_n_1_r"/>
    <trip id="169" depart="135.20" from="n_1_1_to_n_1_2" to="n_0_2_to_n_1_2"/>
    <trip id="170" depart="136.00" from="n_2_1_to_n_2_0" to="n_0_2_to_n_0_1"/>
    <trip id="171" depart="136.80" from="n_0_0_to_n_0_1" to="n_0_1_to_n_1_1"/>
    <trip id="172" depart="137.60" from="n_1_0_to_n_0_0" to="n_2_1_to_n_2_2"/>
    <trip id="173" depart="138.40" from="n_2_r_to_n_2_2" to="n_0_2_to_n_1_2"/>
    <trip id="174" depart="139.20" from="n_1_r_to_n_2_1" to="n_1_0_to_n_1_u"/>
    <trip id="175" depart="140.00" from="n_2_u_to_n_2_0" to="n_1_1_to_n_2_1"/>
    <trip id="176" depart="140.80" from="n_2_l_to_n_0_2" to="n_0_1_to_n_0_0"/>
    <trip id="177" depart="141.60" from="n_2_r_to_n_2_2" to="n_0_1_to_n_1_1"/>
    <trip id="178" depart="142.40" from="n_2_r_to_n_2_2" to="n_0_2_to_n_0_d"/>
    <trip id="179" depart="143.20" from="n_0_1_to_n_0_2" to="n_1_0_to_n_2_0"/>
    <trip id="180" depart="144.00" from="n_2_0_to_n_2_1" to="n_0_2_to_n_2_l"/>
    <trip id="181" depart="144.80" from="n_1_d_to_n_1_2" to="n_1_1_to_n_1_2"/>
    <trip id="182" depart="145.60" from="n_1_0_to_n_2_0" to="n_1_2_to_n_0_2"/>
    <trip id="183" depart="146.40" from="n_0_r_to_n_2_0" to="n_2_0_to_n_1_0"/>
    <trip id="184" depart="147.20" from="n_0_0_to_n_0_1" to="n_2_2_to_n_2_1"/>
    <trip id="185" depart="148.00" from="n_1_2_to_n_1_1" to="n_2_0_to_n_1_0"/>
    <trip id="186" depart="148.80" from="n_2_0_to_n_2_1" to="n_2_0_to_n_0_r"/>
    <trip id="187" depart="149.60" from="n_1_0_to_n_2_0" to="n_0_0_to_n_0_u"/>
    <trip id="188" depart="150.40" from="n_1_r_to_n_2_1" to="n_0_2_to_n_2_l"/>
    <trip id="189" depart="151.20" from="n_1_0_to_n_0_0" to="n_2_1_to_n_2_0"/>
    <trip id="190" depart="152.00" from="n_2_0_to_n_1_0" to="n_0_2_to_n_1_2"/>
    <trip id="191" depart="152.80" from="n_1_0_to_n_0_0" to="n_1_0_to_n_1_u"/>
    <trip id="192" depart="153.60" from="n_1_1_to_n_0_1" to="n_0_2_to_n_1_2"/>
    <trip id="193" depart="154.40" from="n_0_1_to_n_1_1" to="n_1_0_to_n_2_0"/>
    <trip id="194" depart="155.20" from="n_2_l_to_n_0_2" to="n_2_0_to_n_0_r"/>
    <trip id="195" depart="156.00" from="n_2_d_to_n_2_2" to="n_1_2_to_n_1_d"/>
    <trip id="196" depart="156.80" from="n_0_u_to_n_0_0" to="n_1_1_to_n_2_1"/>
    <trip id="197" depart="157.60" from="n_0_0_to_n_0_1" to="n_0_2_to_n_1_2"/>
    <trip id="198" depart="158.40" from="n_1_1_to_n_1_0" to="n_1_2_to_n_0_2"/>
    <trip id="199" depart="159.20" from="n_1_r_to_n_2_1" to="n_1_1_to_n_0_1"/>
    <trip id="200" depart="160.00" from="n_1_1_to_n_1_0" to="n_0_1_to_n_1_l"/>
    <trip id="201" depart="160.80" from="n_1_1_to_n_2_1" to="n_2_2_to_n_1_2"/>
    <trip id="202" depart="161.60" from="n_2_1_to_n_2_0" to="n_0_1_to_n_1_1"/>
    <trip id="203" depart="162.40" from="n_0_1_to_n_0_2" to="n_1_1_to_n_1_2"/>
    <trip id="204" depart="163.20" from="n_1_l_to_n_0_1" to="n_1_0_to_n_0_0"/>
    <trip id="205" depart="164.00" from="n_2_1_to_n_2_2" to="n_2_0_to_n_2_u"/>
    <trip id="206" depart="164.80" from="n_1_u_to_n_1_0" to="n_0_2_to_n_0_1"/>
    <trip id="207" depart="165.60" from="n_0_d_to_n_0_2" to="n_0_0_to_n_0_1"/>
    <trip id="208" depart="166.40" from="n_0_l_to_n_0_0" to="n_1_1_to_n_1_0"/>
    <trip id="209" depart="167.20" from="n_2_2_to_n_1_2" to="n_0_0_to_n_0_u"/>
    <trip id="210" depart="168.00" from="n_1_1_to_n_0_1" to="n_1_2_to_n_1_d"/>
    <trip id="211" depart="168.80" from="n_0_2_to_n_1_2" to="n_2_0_to_n_1_0"/>
    <trip id="212" depart="169.60" from="n_1_1_to_n_2_1" to="n_0_2_to_n_0_1"/>
    <trip id="213" depart="170.40" from="n_1_r_to_n_2_1" to="n_0_0_to_n_0_1"/>
    <trip id="214" depart="171.20" from="n_2_1_to_n_1_1" to="n_2_0_to_n_2_u"/>
    <trip id="215" depart="172.00" from="n_0_1_to_n_0_2" to="n_1_0_to_n_2_0"/>
    <trip id="216" depart="172.80" from="n_0_2_to_n_1_2" to="n_2_2_to_n_2_d"/>
    <trip id="217" depart="173.60" from="n_1_2_to_n_0_2" to="n_0_0_to_n_0_l"/>
    <trip id="218" depart="174.40" from="n_0_l_to_n_0_0" to="n_2_1_to_n_2_0"/>
    <trip id="219" depart="175.20" from="n_1_1_to_n_1_2" to="n_2_1_to_n_1_1"/>
    <trip id="220" depart="176.00" from="n_1_u_to_n_1_0" to="n_2_2_to_n_2_r"/>
    <trip id="221" depart="176.80" from="n_1_d_to_n_1_2" to="n_2_2_to_n_2_d"/>
    <trip id="222" depart="177.60" from="n_2_d_to_n_2_2" to="n_1_2_to_n_1_d"/>
    <trip id="223" depart="178.40" from="n_2_0_to_n_1_0" to="n_1_1_to_n_1_2"/>
    <trip id="224" depart="179.20" from="n_2_1_to_n_2_2" to="n_1_1_to_n_2_1"/>
    <trip id="225" depart="180.00" from="n_2_d_to_n_2_2" to="n_2_0_to_n_2_1"/>
    <trip id="226" depart="180.80" from="n_1_1_to_n_2_1" to="n_0_2_to_n_0_d"/>
    <trip id="227" depart="181.60" from="n_0_l_to_n_0_0" to="n_1_2_to_n_1_d"/>
    <trip id="228" depart="182.40" from="n_2_1_to_n_1_1" to="n_1_1_to_n_1_2"/>
    <trip id="229" depart="183.20" from="n_1_l_to_n_0_1" to="n_0_2_to_n_0_d"/>
    <trip id="230" depart="184.00" from="n_0_1_to_n_0_0" to="n_0_2_to_n_1_2"/>
    <trip id="231" depart="184.80" from="n_0_r_to_n_2_0" to="n_0_2_to_n_2_l"/>
    <trip id="232" depart="185.60" from="n_1_2_to_n_1_1" to="n_0_1_to_n_0_0"/>
    <trip id="233" depart="186.40" from="n_0_l_to_n_0_0" to="n_2_0_to_n_0_r"/>
    <trip id="234" depart="187.20" from="n_2_0_to_n_1_0" to="n_0_0_to_n_0_u"/>
    <trip id="235" depart="188.00" from="n_1_1_to_n_0_1" to="n_1_1_to_n_2_1"/>
    <trip id="236" depart="188.80" from="n_1_1_to_n_0_1" to="n_0_1_to_n_1_l"/>
    <trip id="237" depart="189.60" from="n_1_1_to_n_1_0" to="n_2_2_to_n_1_2"/>
    <trip id="238" depart="190.40" from="n_1_d_to_n_1_2" to="n_2_0_to_n_1_0"/>
    <trip id="239" depart="191.20" from="n_2_2_to_n_1_2" to="n_2_0_to_n_2_u"/>
    <trip id="240" depart="192.00" from="n_1_0_to_n_2_0" to="n_0_0_to_n_0_1"/>
    <trip id="241" depart="192.80" from="n_1_0_to_n_1_1" to="n_2_0_to_n_2_u"/>
    <trip id="242" depart="193.60" from="n_2_2_to_n_1_2" to="n_2_2_to_n_2_d"/>
    <trip id="243" depart="194.40" from="n_1_1_to_n_1_0" to="n_2_0_to_n_2_1"/>
    <trip id="244" depart="195.20" from="n_1_2_to_n_1_1" to="n_1_2_to_n_1_1"/>
    <trip id="245" depart="196.00" from="n_0_d_to_n_0_2" to="n_0_1_to_n_1_l"/>
    <trip id="246" depart="196.80" from="n_1_1_to_n_1_0" to="n_0_0_to_n_0_l"/>
    <trip id="247" depart="197.60" from="n_1_0_to_n_1_1" to="n_2_0_to_n_0_r"/>
    <trip id="248" depart="198.40" from="n_1_1_to_n_0_1" to="n_0_1_to_n_0_2"/>
    <trip id="249" depart="199.20" from="n_1_1_to_n_1_2" to="n_0_1_to_n_0_0"/>
    <trip id="250" depart="200.00" from="n_1_l_to_n_0_1" to="n_0_0_to_n_0_1"/>
    <trip id="251" depart="200.80" from="n_1_1_to_n_0_1" to="n_1_2_to_n_0_2"/>
    <trip id="252" depart="201.60" from="n_0_0_to_n_0_1" to="n_1_2_to_n_2_2"/>
    <trip id="253" depart="202.40" from="n_0_1_to_n_1_1" to="n_1_1_to_n_0_1"/>
    <trip id="254" depart="203.20" from="n_0_0_to_n_1_0" to="n_1_0_to_n_1_1"/>
    <trip id="255" depart="204.00" from="n_0_d_to_n_0_2" to="n_0_2_to_n_2_l"/>
    <trip id="256" depart="204.80" from="n_2_1_to_n_1_1" to="n_1_0_to_n_1_1"/>
    <trip id="257" depart="205.60" from="n_2_1_to_n_1_1" to="n_2_1_to_n_1_r"/>
    <trip id="258" depart="206.40" from="n_0_r_to_n_2_0" to="n_0_0_to_n_0_u"/>
    <trip id="259" depart="207.20" from="n_0_0_to_n_0_1" to="n_1_1_to_n_2_1"/>
    <trip id="260" depart="208.00" from="n_2_u_to_n_2_0" to="n_1_0_to_n_0_0"/>
    <trip id="261" depart="208.80" from="n_1_r_to_n_2_1" to="n_2_1_to_n_1_1"/>
    <trip id="262" depart="209.60" from="n_1_r_to_n_2_1" to="n_2_0_to_n_2_u"/>
    <trip id="263" depart="210.40" from="n_2_r_to_n_2_2" to="n_0_1_to_n_1_l"/>
    <trip id="264" depart="211.20" from="n_0_0_to_n_0_1" to="n_0_1_to_n_0_2"/>
    <trip id="265" depart="212.00" from="n_0_1_to_n_1_1" to="n_2_0_to_n_0_r"/>
    <trip id="266" depart="212.80" from="n_1_2_to_n_2_2" to="n_0_1_to_n_1_l"/>
    <trip id="267" depart="213.60" from="n_2_0_to_n_1_0" to="n_2_0_to_n_2_u"/>
    <trip id="268" depart="214.40" from="n_0_2_to_n_1_2" to="n_1_2_to_n_1_1"/>
    <trip id="269" depart="215.20" from="n_2_0_to_n_2_1" to="n_0_1_to_n_0_0"/>
    <trip id="270" depart="216.00" from="n_2_1_to_n_2_2" to="n_2_2_to_n_2_d"/>
    <trip id="271" depart="216.80" from="n_0_1_to_n_0_2" to="n_0_0_to_n_0_1"/>
    <trip id="272" depart="217.60" from="n_1_0_to_n_0_0" to="n_2_0_to_n_0_r"/>
    <trip id="273" depart="218.40" from="n_2_r_to_n_2_2" to="n_1_0_to_n_1_u"/>
    <trip id="274" depart="219.20" from="n_2_0_to_n_1_0" to="n_0_0_to_n_0_u"/>
    <trip id="275" depart="220.00" from="n_1_u_to_n_1_0" to="n_1_2_to_n_1_d"/>
    <trip id="276" depart="220.80" from="n_0_1_to_n_0_2" to="n_2_0_to_n_2_u"/>
    <trip id="277" depart="221.60" from="n_2_2_to_n_1_2" to="n_1_2_to_n_1_1"/>
    <trip id="278" depart="222.40" from="n_0_1_to_n_1_1" to="n_2_2_to_n_2_r"/>
    <trip id="279" depart="223.20" from="n_2_1_to_n_2_0" to="n_1_0_to_n_0_0"/>
    <trip id="280" depart="224.00" from="n_1_1_to_n_1_0" to="n_1_0_to_n_1_1"/>
    <trip id="281" depart="224.80" from="n_1_2_to_n_0_2" to="n_1_0_to_n_0_0"/>
    <trip id="282" depart="225.60" from="n_2_2_to_n_1_2" to="n_2_1_to_n_1_r"/>
    <trip id="283" depart="226.40" from="n_0_1_to_n_0_2" to="n_2_2_to_n_2_d"/>
    <trip id="284" depart="227.20" from="n_1_l_to_n_0_1" to="n_2_1_to_n_1_r"/>
    <trip id="285" depart="228.00" from="n_2_0_to_n_1_0" to="n_1_0_to_n_2_0"/>
    <trip id="286" depart="228.80" from="n_2_0_to_n_2_1" to="n_2_2_to_n_2_d"/>
    <trip id="287" depart="229.60" from="n_0_r_to_n_2_0" to="n_2_1_to_n_1_r"/>
    <trip id="288" depart="230.40" from="n_1_2_to_n_1_1" to="n_1_1_to_n_1_0"/>
    <trip id="289" depart="231.20" from="n_1_1_to_n_1_0" to="n_2_0_to_n_2_1"/>
    <trip id="290" depart="232.00" from="n_0_r_to_n_2_0" to="n_2_1_to_n_2_0"/>
    <trip id="291" depart="232.80" from="n_2_1_to_n_2_2" to="n_0_0_to_n_1_0"/>
    <trip id="292" depart="233.60" from="n_2_2_to_n_2_1" to="n_0_2_to_n_0_1"/>
    <trip id="293" depart="234.40" from="n_1_1_to_n_1_2" to="n_1_2_to_n_1_1"/>
    <trip id="294" depart="235.20" from="n_1_0_to_n_2_0" to="n_0_0_to_n_0_l"/>
    <trip id="295" depart="236.00" from="n_2_2_to_n_1_2" to="n_0_1_to_n_1_1"/>
    <trip id="296" depart="236.80" from="n_0_d_to_n_0_2" to="n_2_1_to_n_1_1"/>
    <trip id="297" depart="237.60" from="n_1_0_to_n_1_1" to="n_2_1_to_n_2_2"/>
    <trip id="298" depart="238.40" from="n_2_0_to_n_1_0" to="n_0_2_to_n_0_d"/>
    <trip id="299" depart="239.20" from="n_0_0_to_n_0_1" to="n_2_2_to_n_2_d"/>
    <trip id="300" depart="240.00" from="n_0_1_to_n_0_2" to="n_2_0_to_n_1_0"/>
    <trip id="301" depart="240.80" from="n_1_1_to_n_2_1" to="n_2_0_to_n_2_u"/>
    <trip id="302" depart="241.60" from="n_1_u_to_n_1_0" to="n_1_2_to_n_2_2"/>
    <trip id="303" depart="242.40" from="n_1_1_to_n_2_1" to="n_2_1_to_n_1_1"/>
    <trip id="304" depart="243.20" from="n_0_1_to_n_0_2" to="n_0_1_to_n_1_l"/>
    <trip id="305" depart="244.00" from="n_1_u_to_n_1_0" to="n_0_2_to_n_2_l"/>
    <trip id="306" depart="244.80" from="n_1_2_to_n_2_2" to="n_1_1_to_n_1_0"/>
    <trip id="307" depart="245.60" from="n_1_2_to_n_1_1" to="n_1_0_to_n_2_0"/>
    <trip id="308" depart="246.40" from="n_2_0_to_n_2_1" to="n_0_2_to_n_2_l"/>
    <trip id="309" depart="247.20" from="n_2_0_to_n_1_0" to="n_0_2_to_n_0_d"/>
    <trip id="310" depart="248.00" from="n_0_r_to_n_2_0" to="n_0_1_to_n_0_0"/>
    <trip id="311" depart="248.80" from="n_0_2_to_n_1_2" to="n_0_1_to_n_0_0"/>
    <trip id="312" depart="249.60" from="n_1_2_to_n_1_1" to="n_2_0_to_n_2_u"/>
    <trip id="313" depart="250.40" from="n_0_2_to_n_1_2" to="n_0_1_to_n_1_l"/>
    <trip id="314" depart="251.20" from="n_1_1_to_n_2_1" to="n_2_0_to_n_2_1"/>
    <trip id="315" depart="252.00" from="n_2_u_to_n_2_0" to="n_1_1_to_n_1_2"/>
    <trip id="316" depart="252.80" from="n_0_u_to_n_0_0" to="n_0_0_to_n_1_0"/>
    <trip id="317" depart="253.60" from="n_0_2_to_n_1_2" to="n_0_2_to_n_0_1"/>
    <trip id="318" depart="254.40" from="n_0_2_to_n_1_2" to="n_0_0_to_n_0_1"/>
    <trip id="319" depart="255.20" from="n_1_2_to_n_1_1" to="n_0_2_to_n_0_d"/>
    <trip id="320" depart="256.00" from="n_2_u_to_n_2_0" to="n_1_1_to_n_2_1"/>
    <trip id="321" depart="256.80" from="n_2_0_to_n_1_0" to="n_0_1_to_n_0_0"/>
    <trip id="322" depart="257.60" from="n_2_2_to_n_2_1" to="n_1_1_to_n_1_0"/>
    <trip id="323" depart="258.40" from="n_2_2_to_n_2_1" to="n_1_2_to_n_0_2"/>
    <trip id="324" depart="259.20" from="n_1_1_to_n_1_2" to="n_1_0_to_n_2_0"/>
    <trip id="325" depart="260.00" from="n_0_2_to_n_1_2" to="n_0_0_to_n_0_l"/>
    <trip id="326" depart="260.80" from="n_2_l_to_n_0_2" to="n_1_1_to_n_1_0"/>
    <trip id="327" depart="261.60" from="n_2_1_to_n_2_2" to="n_1_0_to_n_1_u"/>
    <trip id="328" depart="262.40" from="n_0_1_to_n_0_0" to="n_1_2_to_n_1_d"/>
    <trip id="329" depart="263.20" from="n_0_0_to_n_1_0" to="n_0_1_to_n_0_2"/>
    <trip id="330" depart="264.00" from="n_1_2_to_n_2_2" to="n_0_2_to_n_1_2"/>
    <trip id="331" depart="264.80" from="n_2_u_to_n_2_0" to="n_0_1_to_n_0_0"/>
    <trip id="332" depart="265.60" from="n_2_1_to_n_1_1" to="n_1_2_to_n_1_1"/>
    <trip id="333" depart="266.40" from="n_2_1_to_n_2_0" to="n_0_2_to_n_0_1"/>
    <trip id="334" depart="267.20" from="n_1_2_to_n_0_2" to="n_1_1_to_n_0_1"/>
    <trip id="335" depart="268.00" from="n_1_1_to_n_1_0" to="n_2_1_to_n_2_0"/>
    <trip id="336" depart="268.80" from="n_2_u_to_n_2_0" to="n_0_2_to_n_1_2"/>
    <trip id="337" depart="269.60" from="n_1_l_to_n_0_1" to="n_1_2_to_n_1_1"/>
    <trip id="338" depart="270.40" from="n_2_0_to_n_2_1" to="n_2_2_to_n_2_d"/>
    <trip id="339" depart="271.20" from="n_0_d_to_n_0_2" to="n_0_1_to_n_1_l"/>
    <trip id="340" depart="272.00" from="n_1_r_to_n_2_1" to="n_0_1_to_n_0_2"/>
    <trip id="341" depart="272.80" from="n_0_2_to_n_1_2" to="n_0_0_to_n_0_u"/>
    <trip id="342" depart="273.60" from="n_0_0_to_n_0_1" to="n_1_1_to_n_0_1"/>
    <trip id="343" depart="274.40" from="n_1_d_to_n_1_2" to="n_0_2_to_n_1_2"/>
    <trip id="344" depart="275.20" from="n_0_l_to_n_0_0" to="n_2_0_to_n_1_0"/>
    <trip id="345" depart="276.00" from="n_2_0_to_n_1_0" to="n_1_1_to_n_0_1"/>
    <trip id="346" depart="276.80" from="n_1_u_to_n_1_0" to="n_2_2_to_n_2_1"/>
    <trip id="347" depart="277.60" from="n_2_1_to_n_2_0" to="n_1_2_to_n_1_d"/>
    <trip id="348" depart="278.40" from="n_1_r_to_n_2_1" to="n_2_2_to_n_2_1"/>
    <trip id="349" depart="279.20" from="n_1_1_to_n_1_0" to="n_1_1_to_n_2_1"/>
    <trip id="350" depart="280.00" from="n_1_r_to_n_2_1" to="n_2_2_to_n_1_2"/>
    <trip id="351" depart="280.80" from="n_2_1_to_n_2_2" to="n_0_0_to_n_0_u"/>
    <trip id="352" depart="281.60" from="n_0_2_to_n_0_1" to="n_0_2_to_n_2_l"/>
    <trip id="353" depart="282.40" from="n_2_0_to_n_2_1" to="n_1_2_to_n_0_2"/>
    <trip id="354" depart="283.20" from="n_0_u_to_n_0_0" to="n_0_1_to_n_0_0"/>
    <trip id="355" depart="284.00" from="n_1_u_to_n_1_0" to="n_2_0_to_n_1_0"/>
    <trip id="356" depart="284.80" from="n_2_l_to_n_0_2" to="n_1_1_to_n_1_2"/>
    <trip id="357" depart="285.60" from="n_1_1_to_n_2_1" to="n_0_0_to_n_0_u"/>
    <trip id="358" depart="286.40" from="n_0_0_to_n_1_0" to="n_1_0_to_n_2_0"/>
    <trip id="359" depart="287.20" from="n_1_0_to_n_0_0" to="n_0_2_to_n_0_d"/>
    <trip id="360" depart="288.00" from="n_0_1_to_n_0_2" to="n_2_2_to_n_2_d"/>
    <trip id="361" depart="288.80" from="n_2_2_to_n_1_2" to="n_1_2_to_n_0_2"/>
    <trip id="362" depart="289.60" from="n_2_r_to_n_2_2" to="n_2_2_to_n_2_r"/>
    <trip id="363" depart="290.40" from="n_1_u_to_n_1_0" to="n_0_2_to_n_0_d"/>
    <trip id="364" depart="291.20" from="n_0_0_to_n_1_0" to="n_2_0_to_n_2_u"/>
    <trip id="365" depart="292.00" from="n_1_1_to_n_1_2" to="n_1_2_to_n_2_2"/>
    <trip id="366" depart="292.80" from="n_2_d_to_n_2_2" to="n_0_1_to_n_1_1"/>
    <trip id="367" depart="293.60" from="n_1_d_to_n_1_2" to="n_1_2_to_n_1_d"/>
    <trip id="368" depart="294.40" from="n_1_1_to_n_2_1" to="n_0_0_to_n_1_0"/>
    <trip id="369" depart="295.20" from="n_1_0_to_n_1_1" to="n_0_2_to_n_2_l"/>
    <trip id="370" depart="296.00" from="n_1_u_to_n_1_0" to="n_2_1_to_n_2_0"/>
    <trip id="371" depart="296.80" from="n_1_0_to_n_0_0" to="n_2_0_to_n_0_r"/>
    <trip id="372" depart="297.60" from="n_0_u_to_n_0_0" to="n_2_2_to_n_2_d"/>
    <trip id="373" depart="298.40" from="n_2_1_to_n_2_2" to="n_1_1_to_n_2_1"/>
    <trip id="374" depart="299.20" from="n_1_1_to_n_1_2" to="n_0_2_to_n_2_l"/>
    <trip id="375" depart="300.00" from="n_1_0_to_n_0_0" to="n_2_2_to_n_2_d"/>
    <trip id="376" depart="300.80" from="n_1_1_to_n_0_1" to="n_1_1_to_n_1_2"/>
    <trip id="377" depart="301.60" from="n_2_u_to_n_2_0" to="n_1_2_to_n_2_2"/>