<?xml version="1.0" encoding="UTF-8"?>

<!-- generated on 03/30/21 17:54:08 by Eclipse SUMO netgenerate Version 1.8.0
<configuration xmlns:xsi="http://www.w3.org/2001/XMLSchema-instance" xsi:noNamespaceSchemaLocation="http://sumo.dlr.de/xsd/netgenerateConfiguration.xsd">

    <grid_network>
        <grid value="true"/>
        <grid.x-length value="200"/>
        <grid.attach-length value="200"/>
    </grid_network>

    <building_defaults>
        <default.lanenumber value="3"/>
    </building_defaults>

    <junctions>
        <no-turnarounds value="true"/>
    </junctions>

</configuration>
-->

<net version="1.6" junctionCornerDetail="5" limitTurnSpeed="5.50" xmlns:xsi="http://www.w3.org/2001/XMLSchema-instance" xsi:noNamespaceSchemaLocation="http://sumo.dlr.de/xsd/net_file.xsd">

    <location netOffset="0.00,0.00" convBoundary="0.00,0.00,1200.00,800.00" origBoundary="0.00,0.00,1200.00,800.00" projParameter="!"/>

    <edge id=":A0_0" function="internal">
        <lane id=":A0_0_0" index="0" speed="6.51" length="9.03" shape="192.00,213.60 191.65,211.15 190.60,209.40 188.85,208.35 186.40,208.00"/>
    </edge>
    <edge id=":A0_1" function="internal">
        <lane id=":A0_1_0" index="0" speed="13.89" length="27.20" shape="192.00,213.60 192.00,186.40"/>
        <lane id=":A0_1_1" index="1" speed="13.89" length="27.20" shape="195.20,213.60 195.20,186.40"/>
        <lane id=":A0_1_2" index="2" speed="13.89" length="27.20" shape="198.40,213.60 198.40,186.40"/>
    </edge>
    <edge id=":A0_4" function="internal">
        <lane id=":A0_4_0" index="0" speed="10.36" length="7.98" shape="198.40,213.60 199.35,206.95 200.00,205.87"/>
    </edge>
    <edge id=":A0_20" function="internal">
        <lane id=":A0_20_0" index="0" speed="10.36" length="16.53" shape="200.00,205.87 202.20,202.20 206.95,199.35 213.60,198.40"/>
    </edge>
    <edge id=":A0_5" function="internal">
        <lane id=":A0_5_0" index="0" speed="6.51" length="9.03" shape="213.60,208.00 211.15,208.35 209.40,209.40 208.35,211.15 208.00,213.60"/>
    </edge>
    <edge id=":A0_6" function="internal">
        <lane id=":A0_6_0" index="0" speed="13.89" length="27.20" shape="213.60,208.00 186.40,208.00"/>
        <lane id=":A0_6_1" index="1" speed="13.89" length="27.20" shape="213.60,204.80 186.40,204.80"/>
        <lane id=":A0_6_2" index="2" speed="13.89" length="27.20" shape="213.60,201.60 186.40,201.60"/>
    </edge>
    <edge id=":A0_9" function="internal">
        <lane id=":A0_9_0" index="0" speed="10.36" length="24.51" shape="213.60,201.60 206.95,200.65 202.20,197.80 199.35,193.05 198.40,186.40"/>
    </edge>
    <edge id=":A0_10" function="internal">
        <lane id=":A0_10_0" index="0" speed="6.51" length="9.03" shape="208.00,186.40 208.35,188.85 209.40,190.60 211.15,191.65 213.60,192.00"/>
    </edge>
    <edge id=":A0_11" function="internal">
        <lane id=":A0_11_0" index="0" speed="13.89" length="27.20" shape="208.00,186.40 208.00,213.60"/>
        <lane id=":A0_11_1" index="1" speed="13.89" length="27.20" shape="204.80,186.40 204.80,213.60"/>
        <lane id=":A0_11_2" index="2" speed="13.89" length="27.20" shape="201.60,186.40 201.60,213.60"/>
    </edge>
    <edge id=":A0_14" function="internal">
        <lane id=":A0_14_0" index="0" speed="10.36" length="7.98" shape="201.60,186.40 200.65,193.05 200.00,194.13"/>
    </edge>
    <edge id=":A0_21" function="internal">
        <lane id=":A0_21_0" index="0" speed="10.36" length="16.53" shape="200.00,194.13 197.80,197.80 193.05,200.65 186.40,201.60"/>
    </edge>
    <edge id=":A0_15" function="internal">
        <lane id=":A0_15_0" index="0" speed="6.51" length="9.03" shape="186.40,192.00 188.85,191.65 190.60,190.60 191.65,188.85 192.00,186.40"/>
    </edge>
    <edge id=":A0_16" function="internal">
        <lane id=":A0_16_0" index="0" speed="13.89" length="27.20" shape="186.40,192.00 213.60,192.00"/>
        <lane id=":A0_16_1" index="1" speed="13.89" length="27.20" shape="186.40,195.20 213.60,195.20"/>
        <lane id=":A0_16_2" index="2" speed="13.89" length="27.20" shape="186.40,198.40 213.60,198.40"/>
    </edge>
    <edge id=":A0_19" function="internal">
        <lane id=":A0_19_0" index="0" speed="10.36" length="24.51" shape="186.40,198.40 193.05,199.35 197.80,202.20 200.65,206.95 201.60,213.60"/>
    </edge>
    <edge id=":A1_0" function="internal">
        <lane id=":A1_0_0" index="0" speed="6.51" length="9.03" shape="192.00,313.60 191.65,311.15 190.60,309.40 188.85,308.35 186.40,308.00"/>
    </edge>
    <edge id=":A1_1" function="internal">
        <lane id=":A1_1_0" index="0" speed="13.89" length="27.20" shape="192.00,313.60 192.00,286.40"/>
        <lane id=":A1_1_1" index="1" speed="13.89" length="27.20" shape="195.20,313.60 195.20,286.40"/>
        <lane id=":A1_1_2" index="2" speed="13.89" length="27.20" shape="198.40,313.60 198.40,286.40"/>
    </edge>
    <edge id=":A1_4" function="internal">
        <lane id=":A1_4_0" index="0" speed="10.36" length="7.98" shape="198.40,313.60 199.35,306.95 200.00,305.87"/>
    </edge>
    <edge id=":A1_20" function="internal">
        <lane id=":A1_20_0" index="0" speed="10.36" length="16.53" shape="200.00,305.87 202.20,302.20 206.95,299.35 213.60,298.40"/>
    </edge>
    <edge id=":A1_5" function="internal">
        <lane id=":A1_5_0" index="0" speed="6.51" length="9.03" shape="213.60,308.00 211.15,308.35 209.40,309.40 208.35,311.15 208.00,313.60"/>
    </edge>
    <edge id=":A1_6" function="internal">
        <lane id=":A1_6_0" index="0" speed="13.89" length="27.20" shape="213.60,308.00 186.40,308.00"/>
        <lane id=":A1_6_1" index="1" speed="13.89" length="27.20" shape="213.60,304.80 186.40,304.80"/>
        <lane id=":A1_6_2" index="2" speed="13.89" length="27.20" shape="213.60,301.60 186.40,301.60"/>
    </edge>
    <edge id=":A1_9" function="internal">
        <lane id=":A1_9_0" index="0" speed="10.36" length="24.51" shape="213.60,301.60 206.95,300.65 202.20,297.80 199.35,293.05 198.40,286.40"/>
    </edge>
    <edge id=":A1_10" function="internal">
        <lane id=":A1_10_0" index="0" speed="6.51" length="9.03" shape="208.00,286.40 208.35,288.85 209.40,290.60 211.15,291.65 213.60,292.00"/>
    </edge>
    <edge id=":A1_11" function="internal">
        <lane id=":A1_11_0" index="0" speed="13.89" length="27.20" shape="208.00,286.40 208.00,313.60"/>
        <lane id=":A1_11_1" index="1" speed="13.89" length="27.20" shape="204.80,286.40 204.80,313.60"/>
        <lane id=":A1_11_2" index="2" speed="13.89" length="27.20" shape="201.60,286.40 201.60,313.60"/>
    </edge>
    <edge id=":A1_14" function="internal">
        <lane id=":A1_14_0" index="0" speed="10.36" length="7.98" shape="201.60,286.40 200.65,293.05 200.00,294.13"/>
    </edge>
    <edge id=":A1_21" function="internal">
        <lane id=":A1_21_0" index="0" speed="10.36" length="16.53" shape="200.00,294.13 197.80,297.80 193.05,300.65 186.40,301.60"/>
    </edge>
    <edge id=":A1_15" function="internal">
        <lane id=":A1_15_0" index="0" speed="6.51" length="9.03" shape="186.40,292.00 188.85,291.65 190.60,290.60 191.65,288.85 192.00,286.40"/>
    </edge>
    <edge id=":A1_16" function="internal">
        <lane id=":A1_16_0" index="0" speed="13.89" length="27.20" shape="186.40,292.00 213.60,292.00"/>
        <lane id=":A1_16_1" index="1" speed="13.89" length="27.20" shape="186.40,295.20 213.60,295.20"/>
        <lane id=":A1_16_2" index="2" speed="13.89" length="27.20" shape="186.40,298.40 213.60,298.40"/>
    </edge>
    <edge id=":A1_19" function="internal">
        <lane id=":A1_19_0" index="0" speed="10.36" length="24.51" shape="186.40,298.40 193.05,299.35 197.80,302.20 200.65,306.95 201.60,313.60"/>
    </edge>
    <edge id=":A2_0" function="internal">
        <lane id=":A2_0_0" index="0" speed="6.51" length="9.03" shape="192.00,413.60 191.65,411.15 190.60,409.40 188.85,408.35 186.40,408.00"/>
    </edge>
    <edge id=":A2_1" function="internal">
        <lane id=":A2_1_0" index="0" speed="13.89" length="27.20" shape="192.00,413.60 192.00,386.40"/>
        <lane id=":A2_1_1" index="1" speed="13.89" length="27.20" shape="195.20,413.60 195.20,386.40"/>
        <lane id=":A2_1_2" index="2" speed="13.89" length="27.20" shape="198.40,413.60 198.40,386.40"/>
    </edge>
    <edge id=":A2_4" function="internal">
        <lane id=":A2_4_0" index="0" speed="10.36" length="7.98" shape="198.40,413.60 199.35,406.95 200.00,405.87"/>
    </edge>
    <edge id=":A2_20" function="internal">
        <lane id=":A2_20_0" index="0" speed="10.36" length="16.53" shape="200.00,405.87 202.20,402.20 206.95,399.35 213.60,398.40"/>
    </edge>
    <edge id=":A2_5" function="internal">
        <lane id=":A2_5_0" index="0" speed="6.51" length="9.03" shape="213.60,408.00 211.15,408.35 209.40,409.40 208.35,411.15 208.00,413.60"/>
    </edge>
    <edge id=":A2_6" function="internal">
        <lane id=":A2_6_0" index="0" speed="13.89" length="27.20" shape="213.60,408.00 186.40,408.00"/>
        <lane id=":A2_6_1" index="1" speed="13.89" length="27.20" shape="213.60,404.80 186.40,404.80"/>
        <lane id=":A2_6_2" index="2" speed="13.89" length="27.20" shape="213.60,401.60 186.40,401.60"/>
    </edge>
    <edge id=":A2_9" function="internal">
        <lane id=":A2_9_0" index="0" speed="10.36" length="24.51" shape="213.60,401.60 206.95,400.65 202.20,397.80 199.35,393.05 198.40,386.40"/>
    </edge>
    <edge id=":A2_10" function="internal">
        <lane id=":A2_10_0" index="0" speed="6.51" length="9.03" shape="208.00,386.40 208.35,388.85 209.40,390.60 211.15,391.65 213.60,392.00"/>
    </edge>
    <edge id=":A2_11" function="internal">
        <lane id=":A2_11_0" index="0" speed="13.89" length="27.20" shape="208.00,386.40 208.00,413.60"/>
        <lane id=":A2_11_1" index="1" speed="13.89" length="27.20" shape="204.80,386.40 204.80,413.60"/>
        <lane id=":A2_11_2" index="2" speed="13.89" length="27.20" shape="201.60,386.40 201.60,413.60"/>
    </edge>
    <edge id=":A2_14" function="internal">
        <lane id=":A2_14_0" index="0" speed="10.36" length="7.98" shape="201.60,386.40 200.65,393.05 200.00,394.13"/>
    </edge>
    <edge id=":A2_21" function="internal">
        <lane id=":A2_21_0" index="0" speed="10.36" length="16.53" shape="200.00,394.13 197.80,397.80 193.05,400.65 186.40,401.60"/>
    </edge>
    <edge id=":A2_15" function="internal">
        <lane id=":A2_15_0" index="0" speed="6.51" length="9.03" shape="186.40,392.00 188.85,391.65 190.60,390.60 191.65,388.85 192.00,386.40"/>
    </edge>
    <edge id=":A2_16" function="internal">
        <lane id=":A2_16_0" index="0" speed="13.89" length="27.20" shape="186.40,392.00 213.60,392.00"/>
        <lane id=":A2_16_1" index="1" speed="13.89" length="27.20" shape="186.40,395.20 213.60,395.20"/>
        <lane id=":A2_16_2" index="2" speed="13.89" length="27.20" shape="186.40,398.40 213.60,398.40"/>
    </edge>
    <edge id=":A2_19" function="internal">
        <lane id=":A2_19_0" index="0" speed="10.36" length="24.51" shape="186.40,398.40 193.05,399.35 197.80,402.20 200.65,406.95 201.60,413.60"/>
    </edge>
    <edge id=":A3_0" function="internal">
        <lane id=":A3_0_0" index="0" speed="6.51" length="9.03" shape="192.00,513.60 191.65,511.15 190.60,509.40 188.85,508.35 186.40,508.00"/>
    </edge>
    <edge id=":A3_1" function="internal">
        <lane id=":A3_1_0" index="0" speed="13.89" length="27.20" shape="192.00,513.60 192.00,486.40"/>
        <lane id=":A3_1_1" index="1" speed="13.89" length="27.20" shape="195.20,513.60 195.20,486.40"/>
        <lane id=":A3_1_2" index="2" speed="13.89" length="27.20" shape="198.40,513.60 198.40,486.40"/>
    </edge>
    <edge id=":A3_4" function="internal">
        <lane id=":A3_4_0" index="0" speed="10.36" length="7.98" shape="198.40,513.60 199.35,506.95 200.00,505.87"/>
    </edge>
    <edge id=":A3_20" function="internal">
        <lane id=":A3_20_0" index="0" speed="10.36" length="16.53" shape="200.00,505.87 202.20,502.20 206.95,499.35 213.60,498.40"/>
    </edge>
    <edge id=":A3_5" function="internal">
        <lane id=":A3_5_0" index="0" speed="6.51" length="9.03" shape="213.60,508.00 211.15,508.35 209.40,509.40 208.35,511.15 208.00,513.60"/>
    </edge>
    <edge id=":A3_6" function="internal">
        <lane id=":A3_6_0" index="0" speed="13.89" length="27.20" shape="213.60,508.00 186.40,508.00"/>
        <lane id=":A3_6_1" index="1" speed="13.89" length="27.20" shape="213.60,504.80 186.40,504.80"/>
        <lane id=":A3_6_2" index="2" speed="13.89" length="27.20" shape="213.60,501.60 186.40,501.60"/>
    </edge>
    <edge id=":A3_9" function="internal">
        <lane id=":A3_9_0" index="0" speed="10.36" length="24.51" shape="213.60,501.60 206.95,500.65 202.20,497.80 199.35,493.05 198.40,486.40"/>
    </edge>
    <edge id=":A3_10" function="internal">
        <lane id=":A3_10_0" index="0" speed="6.51" length="9.03" shape="208.00,486.40 208.35,488.85 209.40,490.60 211.15,491.65 213.60,492.00"/>
    </edge>
    <edge id=":A3_11" function="internal">
        <lane id=":A3_11_0" index="0" speed="13.89" length="27.20" shape="208.00,486.40 208.00,513.60"/>
        <lane id=":A3_11_1" index="1" speed="13.89" length="27.20" shape="204.80,486.40 204.80,513.60"/>
        <lane id=":A3_11_2" index="2" speed="13.89" length="27.20" shape="201.60,486.40 201.60,513.60"/>
    </edge>
    <edge id=":A3_14" function="internal">
        <lane id=":A3_14_0" index="0" speed="10.36" length="7.98" shape="201.60,486.40 200.65,493.05 200.00,494.13"/>
    </edge>
    <edge id=":A3_21" function="internal">
        <lane id=":A3_21_0" index="0" speed="10.36" length="16.53" shape="200.00,494.13 197.80,497.80 193.05,500.65 186.40,501.60"/>
    </edge>
    <edge id=":A3_15" function="internal">
        <lane id=":A3_15_0" index="0" speed="6.51" length="9.03" shape="186.40,492.00 188.85,491.65 190.60,490.60 191.65,488.85 192.00,486.40"/>
    </edge>
    <edge id=":A3_16" function="internal">
        <lane id=":A3_16_0" index="0" speed="13.89" length="27.20" shape="186.40,492.00 213.60,492.00"/>
        <lane id=":A3_16_1" index="1" speed="13.89" length="27.20" shape="186.40,495.20 213.60,495.20"/>
        <lane id=":A3_16_2" index="2" speed="13.89" length="27.20" shape="186.40,498.40 213.60,498.40"/>
    </edge>
    <edge id=":A3_19" function="internal">
        <lane id=":A3_19_0" index="0" speed="10.36" length="24.51" shape="186.40,498.40 193.05,499.35 197.80,502.20 200.65,506.95 201.60,513.60"/>
    </edge>
    <edge id=":A4_0" function="internal">
        <lane id=":A4_0_0" index="0" speed="6.51" length="9.03" shape="192.00,613.60 191.65,611.15 190.60,609.40 188.85,608.35 186.40,608.00"/>
    </edge>
    <edge id=":A4_1" function="internal">
        <lane id=":A4_1_0" index="0" speed="13.89" length="27.20" shape="192.00,613.60 192.00,586.40"/>
        <lane id=":A4_1_1" index="1" speed="13.89" length="27.20" shape="195.20,613.60 195.20,586.40"/>
        <lane id=":A4_1_2" index="2" speed="13.89" length="27.20" shape="198.40,613.60 198.40,586.40"/>
    </edge>
    <edge id=":A4_4" function="internal">
        <lane id=":A4_4_0" index="0" speed="10.36" length="7.98" shape="198.40,613.60 199.35,606.95 200.00,605.87"/>
    </edge>
    <edge id=":A4_20" function="internal">
        <lane id=":A4_20_0" index="0" speed="10.36" length="16.53" shape="200.00,605.87 202.20,602.20 206.95,599.35 213.60,598.40"/>
    </edge>
    <edge id=":A4_5" function="internal">
        <lane id=":A4_5_0" index="0" speed="6.51" length="9.03" shape="213.60,608.00 211.15,608.35 209.40,609.40 208.35,611.15 208.00,613.60"/>
    </edge>
    <edge id=":A4_6" function="internal">
        <lane id=":A4_6_0" index="0" speed="13.89" length="27.20" shape="213.60,608.00 186.40,608.00"/>
        <lane id=":A4_6_1" index="1" speed="13.89" length="27.20" shape="213.60,604.80 186.40,604.80"/>
        <lane id=":A4_6_2" index="2" speed="13.89" length="27.20" shape="213.60,601.60 186.40,601.60"/>
    </edge>
    <edge id=":A4_9" function="internal">
        <lane id=":A4_9_0" index="0" speed="10.36" length="24.51" shape="213.60,601.60 206.95,600.65 202.20,597.80 199.35,593.05 198.40,586.40"/>
    </edge>
    <edge id=":A4_10" function="internal">
        <lane id=":A4_10_0" index="0" speed="6.51" length="9.03" shape="208.00,586.40 208.35,588.85 209.40,590.60 211.15,591.65 213.60,592.00"/>
    </edge>
    <edge id=":A4_11" function="internal">
        <lane id=":A4_11_0" index="0" speed="13.89" length="27.20" shape="208.00,586.40 208.00,613.60"/>
        <lane id=":A4_11_1" index="1" speed="13.89" length="27.20" shape="204.80,586.40 204.80,613.60"/>
        <lane id=":A4_11_2" index="2" speed="13.89" length="27.20" shape="201.60,586.40 201.60,613.60"/>
    </edge>
    <edge id=":A4_14" function="internal">
        <lane id=":A4_14_0" index="0" speed="10.36" length="7.98" shape="201.60,586.40 200.65,593.05 200.00,594.13"/>
    </edge>
    <edge id=":A4_21" function="internal">
        <lane id=":A4_21_0" index="0" speed="10.36" length="16.53" shape="200.00,594.13 197.80,597.80 193.05,600.65 186.40,601.60"/>
    </edge>
    <edge id=":A4_15" function="internal">
        <lane id=":A4_15_0" index="0" speed="6.51" length="9.03" shape="186.40,592.00 188.85,591.65 190.60,590.60 191.65,588.85 192.00,586.40"/>
    </edge>
    <edge id=":A4_16" function="internal">
        <lane id=":A4_16_0" index="0" speed="13.89" length="27.20" shape="186.40,592.00 213.60,592.00"/>
        <lane id=":A4_16_1" index="1" speed="13.89" length="27.20" shape="186.40,595.20 213.60,595.20"/>
        <lane id=":A4_16_2" index="2" speed="13.89" length="27.20" shape="186.40,598.40 213.60,598.40"/>
    </edge>
    <edge id=":A4_19" function="internal">
        <lane id=":A4_19_0" index="0" speed="10.36" length="24.51" shape="186.40,598.40 193.05,599.35 197.80,602.20 200.65,606.95 201.60,613.60"/>
    </edge>
    <edge id=":B0_0" function="internal">
        <lane id=":B0_0_0" index="0" speed="6.51" length="9.03" shape="392.00,213.60 391.65,211.15 390.60,209.40 388.85,208.35 386.40,208.00"/>
    </edge>
    <edge id=":B0_1" function="internal">
        <lane id=":B0_1_0" index="0" speed="13.89" length="27.20" shape="392.00,213.60 392.00,186.40"/>
        <lane id=":B0_1_1" index="1" speed="13.89" length="27.20" shape="395.20,213.60 395.20,186.40"/>
        <lane id=":B0_1_2" index="2" speed="13.89" length="27.20" shape="398.40,213.60 398.40,186.40"/>
    </edge>
    <edge id=":B0_4" function="internal">
        <lane id=":B0_4_0" index="0" speed="10.36" length="7.98" shape="398.40,213.60 399.35,206.95 400.00,205.87"/>
    </edge>
    <edge id=":B0_20" function="internal">
        <lane id=":B0_20_0" index="0" speed="10.36" length="16.53" shape="400.00,205.87 402.20,202.20 406.95,199.35 413.60,198.40"/>
    </edge>
    <edge id=":B0_5" function="internal">
        <lane id=":B0_5_0" index="0" speed="6.51" length="9.03" shape="413.60,208.00 411.15,208.35 409.40,209.40 408.35,211.15 408.00,213.60"/>
    </edge>
    <edge id=":B0_6" function="internal">
        <lane id=":B0_6_0" index="0" speed="13.89" length="27.20" shape="413.60,208.00 386.40,208.00"/>
        <lane id=":B0_6_1" index="1" speed="13.89" length="27.20" shape="413.60,204.80 386.40,204.80"/>
        <lane id=":B0_6_2" index="2" speed="13.89" length="27.20" shape="413.60,201.60 386.40,201.60"/>
    </edge>
    <edge id=":B0_9" function="internal">
        <lane id=":B0_9_0" index="0" speed="10.36" length="24.51" shape="413.60,201.60 406.95,200.65 402.20,197.80 399.35,193.05 398.40,186.40"/>
    </edge>
    <edge id=":B0_10" function="internal">
        <lane id=":B0_10_0" index="0" speed="6.51" length="9.03" shape="408.00,186.40 408.35,188.85 409.40,190.60 411.15,191.65 413.60,192.00"/>
    </edge>
    <edge id=":B0_11" function="internal">
        <lane id=":B0_11_0" index="0" speed="13.89" length="27.20" shape="408.00,186.40 408.00,213.60"/>
        <lane id=":B0_11_1" index="1" speed="13.89" length="27.20" shape="404.80,186.40 404.80,213.60"/>
        <lane id=":B0_11_2" index="2" speed="13.89" length="27.20" shape="401.60,186.40 401.60,213.60"/>
    </edge>
    <edge id=":B0_14" function="internal">
        <lane id=":B0_14_0" index="0" speed="10.36" length="7.98" shape="401.60,186.40 400.65,193.05 400.00,194.13"/>
    </edge>
    <edge id=":B0_21" function="internal">
        <lane id=":B0_21_0" index="0" speed="10.36" length="16.53" shape="400.00,194.13 397.80,197.80 393.05,200.65 386.40,201.60"/>
    </edge>
    <edge id=":B0_15" function="internal">
        <lane id=":B0_15_0" index="0" speed="6.51" length="9.03" shape="386.40,192.00 388.85,191.65 390.60,190.60 391.65,188.85 392.00,186.40"/>
    </edge>
    <edge id=":B0_16" function="internal">
        <lane id=":B0_16_0" index="0" speed="13.89" length="27.20" shape="386.40,192.00 413.60,192.00"/>
        <lane id=":B0_16_1" index="1" speed="13.89" length="27.20" shape="386.40,195.20 413.60,195.20"/>
        <lane id=":B0_16_2" index="2" speed="13.89" length="27.20" shape="386.40,198.40 413.60,198.40"/>
    </edge>
    <edge id=":B0_19" function="internal">
        <lane id=":B0_19_0" index="0" speed="10.36" length="24.51" shape="386.40,198.40 393.05,199.35 397.80,202.20 400.65,206.95 401.60,213.60"/>
    </edge>
    <edge id=":B1_0" function="internal">
        <lane id=":B1_0_0" index="0" speed="6.51" length="9.03" shape="392.00,313.60 391.65,311.15 390.60,309.40 388.85,308.35 386.40,308.00"/>
    </edge>
    <edge id=":B1_1" function="internal">
        <lane id=":B1_1_0" index="0" speed="13.89" length="27.20" shape="392.00,313.60 392.00,286.40"/>
        <lane id=":B1_1_1" index="1" speed="13.89" length="27.20" shape="395.20,313.60 395.20,286.40"/>
        <lane id=":B1_1_2" index="2" speed="13.89" length="27.20" shape="398.40,313.60 398.40,286.40"/>
    </edge>
    <edge id=":B1_4" function="internal">
        <lane id=":B1_4_0" index="0" speed="10.36" length="7.98" shape="398.40,313.60 399.35,306.95 400.00,305.87"/>
    </edge>
    <edge id=":B1_20" function="internal">
        <lane id=":B1_20_0" index="0" speed="10.36" length="16.53" shape="400.00,305.87 402.20,302.20 406.95,299.35 413.60,298.40"/>
    </edge>
    <edge id=":B1_5" function="internal">
        <lane id=":B1_5_0" index="0" speed="6.51" length="9.03" shape="413.60,308.00 411.15,308.35 409.40,309.40 408.35,311.15 408.00,313.60"/>
    </edge>
    <edge id=":B1_6" function="internal">
        <lane id=":B1_6_0" index="0" speed="13.89" length="27.20" shape="413.60,308.00 386.40,308.00"/>
        <lane id=":B1_6_1" index="1" speed="13.89" length="27.20" shape="413.60,304.80 386.40,304.80"/>
        <lane id=":B1_6_2" index="2" speed="13.89" length="27.20" shape="413.60,301.60 386.40,301.60"/>
    </edge>
    <edge id=":B1_9" function="internal">
        <lane id=":B1_9_0" index="0" speed="10.36" length="24.51" shape="413.60,301.60 406.95,300.65 402.20,297.80 399.35,293.05 398.40,286.40"/>
    </edge>
    <edge id=":B1_10" function="internal">
        <lane id=":B1_10_0" index="0" speed="6.51" length="9.03" shape="408.00,286.40 408.35,288.85 409.40,290.60 411.15,291.65 413.60,292.00"/>
    </edge>
    <edge id=":B1_11" function="internal">
        <lane id=":B1_11_0" index="0" speed="13.89" length="27.20" shape="408.00,286.40 408.00,313.60"/>
        <lane id=":B1_11_1" index="1" speed="13.89" length="27.20" shape="404.80,286.40 404.80,313.60"/>
        <lane id=":B1_11_2" index="2" speed="13.89" length="27.20" shape="401.60,286.40 401.60,313.60"/>
    </edge>
    <edge id=":B1_14" function="internal">
        <lane id=":B1_14_0" index="0" speed="10.36" length="7.98" shape="401.60,286.40 400.65,293.05 400.00,294.13"/>
    </edge>
    <edge id=":B1_21" function="internal">
        <lane id=":B1_21_0" index="0" speed="10.36" length="16.53" shape="400.00,294.13 397.80,297.80 393.05,300.65 386.40,301.60"/>
    </edge>
    <edge id=":B1_15" function="internal">
        <lane id=":B1_15_0" index="0" speed="6.51" length="9.03" shape="386.40,292.00 388.85,291.65 390.60,290.60 391.65,288.85 392.00,286.40"/>
    </edge>
    <edge id=":B1_16" function="internal">
        <lane id=":B1_16_0" index="0" speed="13.89" length="27.20" shape="386.40,292.00 413.60,292.00"/>
        <lane id=":B1_16_1" index="1" speed="13.89" length="27.20" shape="386.40,295.20 413.60,295.20"/>
        <lane id=":B1_16_2" index="2" speed="13.89" length="27.20" shape="386.40,298.40 413.60,298.40"/>
    </edge>
    <edge id=":B1_19" function="internal">
        <lane id=":B1_19_0" index="0" speed="10.36" length="24.51" shape="386.40,298.40 393.05,299.35 397.80,302.20 400.65,306.95 401.60,313.60"/>
    </edge>
    <edge id=":B2_0" function="internal">
        <lane id=":B2_0_0" index="0" speed="6.51" length="9.03" shape="392.00,413.60 391.65,411.15 390.60,409.40 388.85,408.35 386.40,408.00"/>
    </edge>
    <edge id=":B2_1" function="internal">
        <lane id=":B2_1_0" index="0" speed="13.89" length="27.20" shape="392.00,413.60 392.00,386.40"/>
        <lane id=":B2_1_1" index="1" speed="13.89" length="27.20" shape="395.20,413.60 395.20,386.40"/>
        <lane id=":B2_1_2" index="2" speed="13.89" length="27.20" shape="398.40,413.60 398.40,386.40"/>
    </edge>
    <edge id=":B2_4" function="internal">
        <lane id=":B2_4_0" index="0" speed="10.36" length="7.98" shape="398.40,413.60 399.35,406.95 400.00,405.87"/>
    </edge>
    <edge id=":B2_20" function="internal">
        <lane id=":B2_20_0" index="0" speed="10.36" length="16.53" shape="400.00,405.87 402.20,402.20 406.95,399.35 413.60,398.40"/>
    </edge>
    <edge id=":B2_5" function="internal">
        <lane id=":B2_5_0" index="0" speed="6.51" length="9.03" shape="413.60,408.00 411.15,408.35 409.40,409.40 408.35,411.15 408.00,413.60"/>
    </edge>
    <edge id=":B2_6" function="internal">
        <lane id=":B2_6_0" index="0" speed="13.89" length="27.20" shape="413.60,408.00 386.40,408.00"/>
        <lane id=":B2_6_1" index="1" speed="13.89" length="27.20" shape="413.60,404.80 386.40,404.80"/>
        <lane id=":B2_6_2" index="2" speed="13.89" length="27.20" shape="413.60,401.60 386.40,401.60"/>
    </edge>
    <edge id=":B2_9" function="internal">
        <lane id=":B2_9_0" index="0" speed="10.36" length="24.51" shape="413.60,401.60 406.95,400.65 402.20,397.80 399.35,393.05 398.40,386.40"/>
    </edge>
    <edge id=":B2_10" function="internal">
        <lane id=":B2_10_0" index="0" speed="6.51" length="9.03" shape="408.00,386.40 408.35,388.85 409.40,390.60 411.15,391.65 413.60,392.00"/>
    </edge>
    <edge id=":B2_11" function="internal">
        <lane id=":B2_11_0" index="0" speed="13.89" length="27.20" shape="408.00,386.40 408.00,413.60"/>
        <lane id=":B2_11_1" index="1" speed="13.89" length="27.20" shape="404.80,386.40 404.80,413.60"/>
        <lane id=":B2_11_2" index="2" speed="13.89" length="27.20" shape="401.60,386.40 401.60,413.60"/>
    </edge>
    <edge id=":B2_14" function="internal">
        <lane id=":B2_14_0" index="0" speed="10.36" length="7.98" shape="401.60,386.40 400.65,393.05 400.00,394.13"/>
    </edge>
    <edge id=":B2_21" function="internal">
        <lane id=":B2_21_0" index="0" speed="10.36" length="16.53" shape="400.00,394.13 397.80,397.80 393.05,400.65 386.40,401.60"/>
    </edge>
    <edge id=":B2_15" function="internal">
        <lane id=":B2_15_0" index="0" speed="6.51" length="9.03" shape="386.40,392.00 388.85,391.65 390.60,390.60 391.65,388.85 392.00,386.40"/>
    </edge>
    <edge id=":B2_16" function="internal">
        <lane id=":B2_16_0" index="0" speed="13.89" length="27.20" shape="386.40,392.00 413.60,392.00"/>
        <lane id=":B2_16_1" index="1" speed="13.89" length="27.20" shape="386.40,395.20 413.60,395.20"/>
        <lane id=":B2_16_2" index="2" speed="13.89" length="27.20" shape="386.40,398.40 413.60,398.40"/>
    </edge>
    <edge id=":B2_19" function="internal">
        <lane id=":B2_19_0" index="0" speed="10.36" length="24.51" shape="386.40,398.40 393.05,399.35 397.80,402.20 400.65,406.95 401.60,413.60"/>
    </edge>
    <edge id=":B3_0" function="internal">
        <lane id=":B3_0_0" index="0" speed="6.51" length="9.03" shape="392.00,513.60 391.65,511.15 390.60,509.40 388.85,508.35 386.40,508.00"/>
    </edge>
    <edge id=":B3_1" function="internal">
        <lane id=":B3_1_0" index="0" speed="13.89" length="27.20" shape="392.00,513.60 392.00,486.40"/>
        <lane id=":B3_1_1" index="1" speed="13.89" length="27.20" shape="395.20,513.60 395.20,486.40"/>
        <lane id=":B3_1_2" index="2" speed="13.89" length="27.20" shape="398.40,513.60 398.40,486.40"/>
    </edge>
    <edge id=":B3_4" function="internal">
        <lane id=":B3_4_0" index="0" speed="10.36" length="7.98" shape="398.40,513.60 399.35,506.95 400.00,505.87"/>
    </edge>
    <edge id=":B3_20" function="internal">
        <lane id=":B3_20_0" index="0" speed="10.36" length="16.53" shape="400.00,505.87 402.20,502.20 406.95,499.35 413.60,498.40"/>
    </edge>
    <edge id=":B3_5" function="internal">
        <lane id=":B3_5_0" index="0" speed="6.51" length="9.03" shape="413.60,508.00 411.15,508.35 409.40,509.40 408.35,511.15 408.00,513.60"/>
    </edge>
    <edge id=":B3_6" function="internal">
        <lane id=":B3_6_0" index="0" speed="13.89" length="27.20" shape="413.60,508.00 386.40,508.00"/>
        <lane id=":B3_6_1" index="1" speed="13.89" length="27.20" shape="413.60,504.80 386.40,504.80"/>
        <lane id=":B3_6_2" index="2" speed="13.89" length="27.20" shape="413.60,501.60 386.40,501.60"/>
    </edge>
    <edge id=":B3_9" function="internal">
        <lane id=":B3_9_0" index="0" speed="10.36" length="24.51" shape="413.60,501.60 406.95,500.65 402.20,497.80 399.35,493.05 398.40,486.40"/>
    </edge>
    <edge id=":B3_10" function="internal">
        <lane id=":B3_10_0" index="0" speed="6.51" length="9.03" shape="408.00,486.40 408.35,488.85 409.40,490.60 411.15,491.65 413.60,492.00"/>
    </edge>
    <edge id=":B3_11" function="internal">