<?xml version='1.0' encoding='UTF-8'?>
<nodes>
    <node id="n_0_0" type="traffic_light" tl="n_0_0" x="-750.0" y="750.0"/>
    <node id="n_0_1" type="traffic_light" tl="n_0_1" x="-750.0" y="450.0"/>
    <node id="n_0_2" type="traffic_light" tl="n_0_2" x="-750.0" y="150.0"/>
    <node id="n_0_3" type="traffic_light" tl="n_0_3" x="-750.0" y="-150.0"/>
    <node id="n_0_4" type="traffic_light" tl="n_0_4" x="-750.0" y="-450.0"/>
    <node id="n_1_0" type="traffic_light" tl="n_1_0" x="-450.0" y="750.0"/>
    <node id="n_1_1" type="traffic_light" tl="n_1_1" x="-450.0" y="450.0"/>
    <node id="n_1_2" type="traffic_light" tl="n_1_2" x="-450.0" y="150.0"/>
    <node id="n_1_3" type="traffic_light" tl="n_1_3" x="-450.0" y="-150.0"/>
    <node id="n_1_4" type="traffic_light" tl="n_1_4" x="-450.0" y="-450.0"/>
    <node id="n_2_0" type="traffic_light" tl="n_2_0" x="-150.0" y="750.0"/>
    <node id="n_2_1" type="traffic_light" tl="n_2_1" x="-150.0" y="450.0"/>
    <node id="n_2_2" type="traffic_light" tl="n_2_2" x="-150.0" y="150.0"/>
    <node id="n_2_3" type="traffic_light" tl="n_2_3" x="-150.0" y="-150.0"/>
    <node id="n_2_4" type="traffic_light" tl="n_2_4" x="-150.0" y="-450.0"/>
    <node id="n_3_0" type="traffic_light" tl="n_3_0" x="150.0" y="750.0"/>
    <node id="n_3_1" type="traffic_light" tl="n_3_1" x="150.0" y="450.0"/>
    <node id="n_3_2" type="traffic_light" tl="n_3_2" x="150.0" y="150.0"/>
    <node id="n_3_3" type="traffic_light" tl="n_3_3" x="150.0" y="-150.0"/>
    <node id="n_3_4" type="traffic_light" tl="n_3_4" x="150.0" y="-450.0"/>
    <node id="n_4_0" type="traffic_light" tl="n_4_0" x="450.0" y="750.0"/>
    <node id="n_4_1" type="traffic_light" tl="n_4_1" x="450.0" y="450.0"/>
    <node id="n_4_2" type="traffic_light" tl="n_4_2" x="450.0" y="150.0"/>
    <node id="n_4_3" type="traffic_light" tl="n_4_3" x="450.0" y="-150.0"/>
    <node id="n_4_4" type="traffic_light" tl="n_4_4" x="450.0" y="-450.0"/>
    <node id="n_0_u" x="-750.0" y="1050.0"/>
    <node id="n_0_r" x="750.0" y="750.0"/>
    <node id="n_0_d" x="-750.0" y="-750.0"/>
    <node id="n_0_l" x="-1050.0" y="750.0"/>
    <node id="n_1_u" x="-450.0" y="1050.0"/>
    <node id="n_1_r" x="750.0" y="450.0"/>
    <node id="n_1_d" x="-450.0" y="-750.0"/>
    <node id="n_1_l" x="-1050.0" y="450.0"/>
    <node id="n_2_u" x="-150.0" y="1050.0"/>
    <node id="n_2_r" x="750.0" y="150.0"/>
    <node id="n_2_d" x="-150.0" y="-750.0"/>
    <node id="n_2_l" x="-1050.0" y="150.0"/>
    <node id="n_3_u" x="150.0" y="1050.0"/>
    <node id="n_3_r" x="750.0" y="-150.0"/>
    <node id="n_3_d" x="150.0" y="-750.0"/>
    <node id="n_3_l" x="-1050.0" y="-150.0"/>
    <node id="n_4_u" x="450.0" y="1050.0"/>
    <node id="n_4_r" x="750.0" y="-450.0"/>
    <node id="n_4_d" x="450.0" y="-750.0"/>
    <node id="n_4_l" x="-1050.0" y="-450.0"/>
    </nodes>
    
