<?xml version='1.0' encoding='UTF-8'?>
<additional>
    <edgeData id="edgeData_00" file="C:\traffic-optimization_RL\Experiment/data/5x5grid_edge.xml" begin="0" end="3600" freq="1000"/>
    <laneData id="laneData_00" file="C:\traffic-optimization_RL\Experiment/data/5x5grid_lane.xml" begin="0" end="3600" freq="1000"/>
    </additional>
    
