<?xml version='1.0' encoding='UTF-8'?>
<additional>
      <tlLogic id="n_0_0" type="static" programID="n_0_0" offset="0">
        <phase duration="37" state="rrrrGrrrrrrrrrGrrrrr"/>
        <phase duration="3" state="yyyyyyyyyyyyyyyyyyyy"/>
        <phase duration="37" state="GGGGrrrrrrGGGGrrrrrr"/>
        <phase duration="3" state="yyyyyyyyyyyyyyyyyyyy"/>
        <phase duration="37" state="rrrrrrrrrGrrrrrrrrrG"/>
        <phase duration="3" state="yyyyyyyyyyyyyyyyyyyy"/>
        <phase duration="37" state="rrrrrGGGGrrrrrrGGGGr"/>
        <phase duration="3" state="yyyyyyyyyyyyyyyyyyyy"/>
        </tlLogic>
        <tlLogic id="n_0_1" type="static" programID="n_0_1" offset="0">
        <phase duration="37" state="rrrrGrrrrrrrrrGrrrrr"/>
        <phase duration="3" state="yyyyyyyyyyyyyyyyyyyy"/>
        <phase duration="37" state="GGGGrrrrrrGGGGrrrrrr"/>
        <phase duration="3" state="yyyyyyyyyyyyyyyyyyyy"/>
        <phase duration="37" state="rrrrrrrrrGrrrrrrrrrG"/>
        <phase duration="3" state="yyyyyyyyyyyyyyyyyyyy"/>
        <phase duration="37" state="rrrrrGGGGrrrrrrGGGGr"/>
        <phase duration="3" state="yyyyyyyyyyyyyyyyyyyy"/>
        </tlLogic>
        <tlLogic id="n_0_2" type="static" programID="n_0_2" offset="0">
        <phase duration="37" state="rrrrGrrrrrrrrrGrrrrr"/>
        <phase duration="3" state="yyyyyyyyyyyyyyyyyyyy"/>
        <phase duration="37" state="GGGGrrrrrrGGGGrrrrrr"/>
        <phase duration="3" state="yyyyyyyyyyyyyyyyyyyy"/>
        <phase duration="37" state="rrrrrrrrrGrrrrrrrrrG"/>
        <phase duration="3" state="yyyyyyyyyyyyyyyyyyyy"/>
        <phase duration="37" state="rrrrrGGGGrrrrrrGGGGr"/>
        <phase duration="3" state="yyyyyyyyyyyyyyyyyyyy"/>
        </tlLogic>
        <tlLogic id="n_0_3" type="static" programID="n_0_3" offset="0">
        <phase duration="37" state="rrrrGrrrrrrrrrGrrrrr"/>
        <phase duration="3" state="yyyyyyyyyyyyyyyyyyyy"/>
        <phase duration="37" state="GGGGrrrrrrGGGGrrrrrr"/>
        <phase duration="3" state="yyyyyyyyyyyyyyyyyyyy"/>
        <phase duration="37" state="rrrrrrrrrGrrrrrrrrrG"/>
        <phase duration="3" state="yyyyyyyyyyyyyyyyyyyy"/>
        <phase duration="37" state="rrrrrGGGGrrrrrrGGGGr"/>
        <phase duration="3" state="yyyyyyyyyyyyyyyyyyyy"/>
        </tlLogic>
        <tlLogic id="n_0_4" type="static" programID="n_0_4" offset="0">
        <phase duration="37" state="rrrrGrrrrrrrrrGrrrrr"/>
        <phase duration="3" state="yyyyyyyyyyyyyyyyyyyy"/>
        <phase duration="37" state="GGGGrrrrrrGGGGrrrrrr"/>
        <phase duration="3" state="yyyyyyyyyyyyyyyyyyyy"/>
        <phase duration="37" state="rrrrrrrrrGrrrrrrrrrG"/>
        <phase duration="3" state="yyyyyyyyyyyyyyyyyyyy"/>
        <phase duration="37" state="rrrrrGGGGrrrrrrGGGGr"/>
        <phase duration="3" state="yyyyyyyyyyyyyyyyyyyy"/>
        </tlLogic>
        <tlLogic id="n_1_0" type="static" programID="n_1_0" offset="0">
        <phase duration="37" state="rrrrGrrrrrrrrrGrrrrr"/>
        <phase duration="3" state="yyyyyyyyyyyyyyyyyyyy"/>
        <phase duration="37" state="GGGGrrrrrrGGGGrrrrrr"/>
        <phase duration="3" state="yyyyyyyyyyyyyyyyyyyy"/>
        <phase duration="37" state="rrrrrrrrrGrrrrrrrrrG"/>
        <phase duration="3" state="yyyyyyyyyyyyyyyyyyyy"/>
        <phase duration="37" state="rrrrrGGGGrrrrrrGGGGr"/>
        <phase duration="3" state="yyyyyyyyyyyyyyyyyyyy"/>
        </tlLogic>
        <tlLogic id="n_1_1" type="static" programID="n_1_1" offset="0">
        <phase duration="37" state="rrrrGrrrrrrrrrGrrrrr"/>
        <phase duration="3" state="yyyyyyyyyyyyyyyyyyyy"/>
        <phase duration="37" state="GGGGrrrrrrGGGGrrrrrr"/>
        <phase duration="3" state="yyyyyyyyyyyyyyyyyyyy"/>
        <phase duration="37" state="rrrrrrrrrGrrrrrrrrrG"/>
        <phase duration="3" state="yyyyyyyyyyyyyyyyyyyy"/>
        <phase duration="37" state="rrrrrGGGGrrrrrrGGGGr"/>
        <phase duration="3" state="yyyyyyyyyyyyyyyyyyyy"/>
        </tlLogic>
        <tlLogic id="n_1_2" type="static" programID="n_1_2" offset="0">
        <phase duration="37" state="rrrrGrrrrrrrrrGrrrrr"/>
        <phase duration="3" state="yyyyyyyyyyyyyyyyyyyy"/>
        <phase duration="37" state="GGGGrrrrrrGGGGrrrrrr"/>
        <phase duration="3" state="yyyyyyyyyyyyyyyyyyyy"/>
        <phase duration="37" state="rrrrrrrrrGrrrrrrrrrG"/>
        <phase duration="3" state="yyyyyyyyyyyyyyyyyyyy"/>
        <phase duration="37" state="rrrrrGGGGrrrrrrGGGGr"/>
        <phase duration="3" state="yyyyyyyyyyyyyyyyyyyy"/>
        </tlLogic>
        <tlLogic id="n_1_3" type="static" programID="n_1_3" offset="0">
        <phase duration="37" state="rrrrGrrrrrrrrrGrrrrr"/>
        <phase duration="3" state="yyyyyyyyyyyyyyyyyyyy"/>
        <phase duration="37" state="GGGGrrrrrrGGGGrrrrrr"/>
        <phase duration="3" state="yyyyyyyyyyyyyyyyyyyy"/>
        <phase duration="37" state="rrrrrrrrrGrrrrrrrrrG"/>
        <phase duration="3" state="yyyyyyyyyyyyyyyyyyyy"/>
        <phase duration="37" state="rrrrrGGGGrrrrrrGGGGr"/>
        <phase duration="3" state="yyyyyyyyyyyyyyyyyyyy"/>
        </tlLogic>
        <tlLogic id="n_1_4" type="static" programID="n_1_4" offset="0">
        <phase duration="37" state="rrrrGrrrrrrrrrGrrrrr"/>
        <phase duration="3" state="yyyyyyyyyyyyyyyyyyyy"/>
        <phase duration="37" state="GGGGrrrrrrGGGGrrrrrr"/>
        <phase duration="3" state="yyyyyyyyyyyyyyyyyyyy"/>
        <phase duration="37" state="rrrrrrrrrGrrrrrrrrrG"/>
        <phase duration="3" state="yyyyyyyyyyyyyyyyyyyy"/>
        <phase duration="37" state="rrrrrGGGGrrrrrrGGGGr"/>
        <phase duration="3" state="yyyyyyyyyyyyyyyyyyyy"/>
        </tlLogic>
        <tlLogic id="n_2_0" type="static" programID="n_2_0" offset="0">
        <phase duration="37" state="rrrrGrrrrrrrrrGrrrrr"/>
        <phase duration="3" state="yyyyyyyyyyyyyyyyyyyy"/>
        <phase duration="37" state="GGGGrrrrrrGGGGrrrrrr"/>
        <phase duration="3" state="yyyyyyyyyyyyyyyyyyyy"/>
        <phase duration="37" state="rrrrrrrrrGrrrrrrrrrG"/>
        <phase duration="3" state="yyyyyyyyyyyyyyyyyyyy"/>
        <phase duration="37" state="rrrrrGGGGrrrrrrGGGGr"/>
        <phase duration="3" state="yyyyyyyyyyyyyyyyyyyy"/>
        </tlLogic>
        <tlLogic id="n_2_1" type="static" programID="n_2_1" offset="0">
        <phase duration="37" state="rrrrGrrrrrrrrrGrrrrr"/>
        <phase duration="3" state="yyyyyyyyyyyyyyyyyyyy"/>
        <phase duration="37" state="GGGGrrrrrrGGGGrrrrrr"/>
        <phase duration="3" state="yyyyyyyyyyyyyyyyyyyy"/>
        <phase duration="37" state="rrrrrrrrrGrrrrrrrrrG"/>
        <phase duration="3" state="yyyyyyyyyyyyyyyyyyyy"/>
        <phase duration="37" state="rrrrrGGGGrrrrrrGGGGr"/>
        <phase duration="3" state="yyyyyyyyyyyyyyyyyyyy"/>
        </tlLogic>
        <tlLogic id="n_2_2" type="static" programID="n_2_2" offset="0">
        <phase duration="37" state="rrrrGrrrrrrrrrGrrrrr"/>
        <phase duration="3" state="yyyyyyyyyyyyyyyyyyyy"/>
        <phase duration="37" state="GGGGrrrrrrGGGGrrrrrr"/>
        <phase duration="3" state="yyyyyyyyyyyyyyyyyyyy"/>
        <phase duration="37" state="rrrrrrrrrGrrrrrrrrrG"/>
        <phase duration="3" state="yyyyyyyyyyyyyyyyyyyy"/>
        <phase duration="37" state="rrrrrGGGGrrrrrrGGGGr"/>
        <phase duration="3" state="yyyyyyyyyyyyyyyyyyyy"/>
        </tlLogic>
        <tlLogic id="n_2_3" type="static" programID="n_2_3" offset="0">
        <phase duration="37" state="rrrrGrrrrrrrrrGrrrrr"/>
        <phase duration="3" state="yyyyyyyyyyyyyyyyyyyy"/>
        <phase duration="37" state="GGGGrrrrrrGGGGrrrrrr"/>
        <phase duration="3" state="yyyyyyyyyyyyyyyyyyyy"/>
        <phase duration="37" state="rrrrrrrrrGrrrrrrrrrG"/>
        <phase duration="3" state="yyyyyyyyyyyyyyyyyyyy"/>
        <phase duration="37" state="rrrrrGGGGrrrrrrGGGGr"/>
        <phase duration="3" state="yyyyyyyyyyyyyyyyyyyy"/>
        </tlLogic>
        <tlLogic id="n_2_4" type="static" programID="n_2_4" offset="0">
        <phase duration="37" state="rrrrGrrrrrrrrrGrrrrr"/>
        <phase duration="3" state="yyyyyyyyyyyyyyyyyyyy"/>
        <phase duration="37" state="GGGGrrrrrrGGGGrrrrrr"/>
        <phase duration="3" state="yyyyyyyyyyyyyyyyyyyy"/>
        <phase duration="37" state="rrrrrrrrrGrrrrrrrrrG"/>
        <phase duration="3" state="yyyyyyyyyyyyyyyyyyyy"/>
        <phase duration="37" state="rrrrrGGGGrrrrrrGGGGr"/>
        <phase duration="3" state="yyyyyyyyyyyyyyyyyyyy"/>
        </tlLogic>
        <tlLogic id="n_3_0" type="static" programID="n_3_0" offset="0">
        <phase duration="37" state="rrrrGrrrrrrrrrGrrrrr"/>
        <phase duration="3" state="yyyyyyyyyyyyyyyyyyyy"/>
        <phase duration="37" state="GGGGrrrrrrGGGGrrrrrr"/>
        <phase duration="3" state="yyyyyyyyyyyyyyyyyyyy"/>
        <phase duration="37" state="rrrrrrrrrGrrrrrrrrrG"/>
        <phase duration="3" state="yyyyyyyyyyyyyyyyyyyy"/>
        <phase duration="37" state="rrrrrGGGGrrrrrrGGGGr"/>
        <phase duration="3" state="yyyyyyyyyyyyyyyyyyyy"/>
        </tlLogic>
        <tlLogic id="n_3_1" type="static" programID="n_3_1" offset="0">
        <phase duration="37" state="rrrrGrrrrrrrrrGrrrrr"/>
        <phase duration="3" state="yyyyyyyyyyyyyyyyyyyy"/>
        <phase duration="37" state="GGGGrrrrrrGGGGrrrrrr"/>
        <phase duration="3" state="yyyyyyyyyyyyyyyyyyyy"/>
        <phase duration="37" state="rrrrrrrrrGrrrrrrrrrG"/>
        <phase duration="3" state="yyyyyyyyyyyyyyyyyyyy"/>
        <phase duration="37" state="rrrrrGGGGrrrrrrGGGGr"/>
        <phase duration="3" state="yyyyyyyyyyyyyyyyyyyy"/>
        </tlLogic>
        <tlLogic id="n_3_2" type="static" programID="n_3_2" offset="0">
        <phase duration="37" state="rrrrGrrrrrrrrrGrrrrr"/>
        <phase duration="3" state="yyyyyyyyyyyyyyyyyyyy"/>
        <phase duration="37" state="GGGGrrrrrrGGGGrrrrrr"/>
        <phase duration="3" state="yyyyyyyyyyyyyyyyyyyy"/>
        <phase duration="37" state="rrrrrrrrrGrrrrrrrrrG"/>
        <phase duration="3" state="yyyyyyyyyyyyyyyyyyyy"/>
        <phase duration="37" state="rrrrrGGGGrrrrrrGGGGr"/>
        <phase duration="3" state="yyyyyyyyyyyyyyyyyyyy"/>
        </tlLogic>
        <tlLogic id="n_3_3" type="static" programID="n_3_3" offset="0">
        <phase duration="37" state="rrrrGrrrrrrrrrGrrrrr"/>
        <phase duration="3" state="yyyyyyyyyyyyyyyyyyyy"/>
        <phase duration="37" state="GGGGrrrrrrGGGGrrrrrr"/>
        <phase duration="3" state="yyyyyyyyyyyyyyyyyyyy"/>
        <phase duration="37" state="rrrrrrrrrGrrrrrrrrrG"/>
        <phase duration="3" state="yyyyyyyyyyyyyyyyyyyy"/>
        <phase duration="37" state="rrrrrGGGGrrrrrrGGGGr"/>
        <phase duration="3" state="yyyyyyyyyyyyyyyyyyyy"/>
        </tlLogic>
        <tlLogic id="n_3_4" type="static" programID="n_3_4" offset="0">
        <phase duration="37" state="rrrrGrrrrrrrrrGrrrrr"/>
        <phase duration="3" state="yyyyyyyyyyyyyyyyyyyy"/>
        <phase duration="37" state="GGGGrrrrrrGGGGrrrrrr"/>
        <phase duration="3" state="yyyyyyyyyyyyyyyyyyyy"/>
        <phase duration="37" state="rrrrrrrrrGrrrrrrrrrG"/>
        <phase duration="3" state="yyyyyyyyyyyyyyyyyyyy"/>
        <phase duration="37" state="rrrrrGGGGrrrrrrGGGGr"/>
        <phase duration="3" state="yyyyyyyyyyyyyyyyyyyy"/>
        </tlLogic>
        <tlLogic id="n_4_0" type="static" programID="n_4_0" offset="0">
        <phase duration="37" state="rrrrGrrrrrrrrrGrrrrr"/>
        <phase duration="3" state="yyyyyyyyyyyyyyyyyyyy"/>
        <phase duration="37" state="GGGGrrrrrrGGGGrrrrrr"/>
        <phase duration="3" state="yyyyyyyyyyyyyyyyyyyy"/>
        <phase duration="37" state="rrrrrrrrrGrrrrrrrrrG"/>
        <phase duration="3" state="yyyyyyyyyyyyyyyyyyyy"/>
        <phase duration="37" state="rrrrrGGGGrrrrrrGGGGr"/>
        <phase duration="3" state="yyyyyyyyyyyyyyyyyyyy"/>
        </tlLogic>
        <tlLogic id="n_4_1" type="static" programID="n_4_1" offset="0">
        <phase duration="37" state="rrrrGrrrrrrrrrGrrrrr"/>
        <phase duration="3" state="yyyyyyyyyyyyyyyyyyyy"/>
        <phase duration="37" state="GGGGrrrrrrGGGGrrrrrr"/>
        <phase duration="3" state="yyyyyyyyyyyyyyyyyyyy"/>
        <phase duration="37" state="rrrrrrrrrGrrrrrrrrrG"/>
        <phase duration="3" state="yyyyyyyyyyyyyyyyyyyy"/>
        <phase duration="37" state="rrrrrGGGGrrrrrrGGGGr"/>
        <phase duration="3" state="yyyyyyyyyyyyyyyyyyyy"/>
        </tlLogic>
        <tlLogic id="n_4_2" type="static" programID="n_4_2" offset="0">
        <phase duration="37" state="rrrrGrrrrrrrrrGrrrrr"/>
        <phase duration="3" state="yyyyyyyyyyyyyyyyyyyy"/>
        <phase duration="37" state="GGGGrrrrrrGGGGrrrrrr"/>
        <phase duration="3" state="yyyyyyyyyyyyyyyyyyyy"/>
        <phase duration="37" state="rrrrrrrrrGrrrrrrrrrG"/>
        <phase duration="3" state="yyyyyyyyyyyyyyyyyyyy"/>
        <phase duration="37" state="rrrrrGGGGrrrrrrGGGGr"/>
        <phase duration="3" state="yyyyyyyyyyyyyyyyyyyy"/>
        </tlLogic>
        <tlLogic id="n_4_3" type="static" programID="n_4_3" offset="0">
        <phase duration="37" state="rrrrGrrrrrrrrrGrrrrr"/>
        <phase duration="3" state="yyyyyyyyyyyyyyyyyyyy"/>
        <phase duration="37" state="GGGGrrrrrrGGGGrrrrrr"/>
        <phase duration="3" state="yyyyyyyyyyyyyyyyyyyy"/>
        <phase duration="37" state="rrrrrrrrrGrrrrrrrrrG"/>
        <phase duration="3" state="yyyyyyyyyyyyyyyyyyyy"/>
        <phase duration="37" state="rrrrrGGGGrrrrrrGGGGr"/>
        <phase duration="3" state="yyyyyyyyyyyyyyyyyyyy"/>
        </tlLogic>
        <tlLogic id="n_4_4" type="static" programID="n_4_4" offset="0">
        <phase duration="37" state="rrrrGrrrrrrrrrGrrrrr"/>
        <phase duration="3" state="yyyyyyyyyyyyyyyyyyyy"/>
        <phase duration="37" state="GGGGrrrrrrGGGGrrrrrr"/>
        <phase duration="3" state="yyyyyyyyyyyyyyyyyyyy"/>
        <phase duration="37" state="rrrrrrrrrGrrrrrrrrrG"/>
        <phase duration="3" state="yyyyyyyyyyyyyyyyyyyy"/>
        <phase duration="37" state="rrrrrGGGGrrrrrrGGGGr"/>
        <phase duration="3" state="yyyyyyyyyyyyyyyyyyyy"/>
        </tlLogic>
      </additional>
      
