<?xml version="1.0" encoding="UTF-8"?>

<!-- generated on 02/15/21 18:06:47 by Eclipse SUMO duarouter Version 1.8.0
<configuration xmlns:xsi="http://www.w3.org/2001/XMLSchema-instance" xsi:noNamespaceSchemaLocation="http://sumo.dlr.de/xsd/duarouterConfiguration.xsd">

    <input>
        <net-file value="0/../modify2.net.xml"/>
        <route-files value="0/../modify2.rou.xml"/>
    </input>

    <output>
        <output-file value="0/modify2_000.rou.xml"/>
        <alternatives-output value="0/modify2_000.rou.alt.xml"/>
        <exit-times value="false"/>
    </output>

    <processing>
        <max-alternatives value="5"/>
        <with-taz value="false"/>
        <weights.expand value="true"/>
        <routing-algorithm value="dijkstra"/>
        <gawron.beta value="0.9"/>
        <gawron.a value="0.5"/>
        <keep-all-routes value="false"/>
        <logit value="false"/>
        <logit.beta value="0.15"/>
        <logit.gamma value="1"/>
    </processing>

    <time>
        <begin value="0"/>
        <end value="3600.0"/>
    </time>

    <report>
        <verbose value="false"/>
        <no-warnings value="false"/>
        <ignore-errors value="false"/>
        <no-step-log value="true"/>
    </report>

    <random_number>
        <random value="false"/>
    </random_number>

</configuration>
-->

<routes xmlns:xsi="http://www.w3.org/2001/XMLSchema-instance" xsi:noNamespaceSchemaLocation="http://sumo.dlr.de/xsd/routes_file.xsd">
    <vehicle id="1" depart="0.80">
        <route edges="-564107461 564107466 -564107465 564112525 564108786 564105335 -564105337"/>
    </vehicle>
    <vehicle id="2" depart="1.60">
        <route edges="564106967 564107597 -564107596 564107594 -564107593 564105094 -564105093 564107456 -564107455 564105080 564114098 -564114097 564104987"/>
    </vehicle>
    <vehicle id="3" depart="2.40">
        <route edges="564108568 564108588 -564108585 -564108049 -564107334 564102747 -564106591 564106544 564106545 -564102732"/>
    </vehicle>
    <vehicle id="4" depart="3.20">
        <route edges="-564112455 564108256 -564108257 -564108020 -564107499 564108005 -564108738 564101895 -564101895"/>
    </vehicle>
    <vehicle id="5" depart="4.00">
        <route edges="-564105336 564101982 564102115 564102174 -564100225 564100226 -564100226 564100225 -564102174 -564102115 -564101982 564105336 -564105334 -564104932 564105326 -564105324 564104843 -564104842 564101592"/>
    </vehicle>
    <vehicle id="6" depart="4.80">
        <route edges="-564101884 564105337 -564105336 564101982 564102115 564102174 -564100225 564100226 564107330 -564107331 564105026 -564105000 -564105016"/>
    </vehicle>
    <vehicle id="7" depart="5.60">
        <route edges="564104742 -564104743 564104743 -564104742 564102608 564113761 564116600 -564116622 564116614 564116906 -564116901 -564116897 564102231"/>
    </vehicle>
    <vehicle id="8" depart="6.40">
        <route edges="-564105337 564101884 564108004 -564108005 564107499 564108020 564108257 -564108256 564102184 564115964 -564102173 564102174 -564100225 564100226 564107330 564108588 -564108582 564102823 564102929"/>
    </vehicle>
    <vehicle id="9" depart="7.20">
        <route edges="564107597 -564107596 564107594 -564107593 564105094 -564105093 564107456 -564107455 564105080 564114098 -564114097 564107462 -564107461 564107466 -564107465 564107993 -564107991 -564104106 -564101596 564105325 -564105324 564104843 -564104842 564101592 -564101591 -564101589"/>
    </vehicle>
    <vehicle id="10" depart="8.00">
        <route edges="564107596 -564107597 -564106967 564104456 -564104457 -564102823 564108582 -564108579 564104105 564105094"/>
    </vehicle>
    <vehicle id="11" depart="8.80">
        <route edges="-564108003 -564101690 -564101594 -564101591 -564101589 564101590 564101593 564108248 -564108249 -564107990 564101764 564108011 -564108009 564105342 -564105340 -564104855 564116900 -564116897 564102231 564104740 -564104741 564107799 -564107796 -564107512 564102443 564104770 564108565 -564108560 -564104493"/>
    </vehicle>
    <vehicle id="12" depart="9.60">
        <route edges="564114098 -564114097 564107462 -564107461 564107466 -564107465 564107993 -564107991 564107991 -564107993"/>
    </vehicle>
    <vehicle id="13" depart="10.40">
        <route edges="-564102825"/>
    </vehicle>
    <vehicle id="14" depart="11.20">
        <route edges="564108020 564108257 -564108256 564112455 -564112454 564112448 564112466 -564112465 -564107507 564105342 -564105340 -564104855 564116900 -564116897 564102231 564104740 -564104741 564107799 -564107796 -564107512 564102443 564104770 564108565 -564108560 -564104493 -564102944 564102943"/>
    </vehicle>
    <vehicle id="15" depart="12.00">
        <route edges="564107596 -564107597 -564106967 564104456 -564104457 564102929 564102931 564103778 -564102934 564106549"/>
    </vehicle>
    <vehicle id="16" depart="12.80">
        <route edges="564102173 -564115964 -564102184 564112455 -564112454 564112448 564112466 -564112465 -564107507 564105342 -564105340 -564104855 564116900 -564116897 564102231 564104740 -564104741 564107799 -564107796 -564107512 564102443 564104743 -564104742 564102608 564113761 564116600"/>
    </vehicle>
    <vehicle id="17" depart="13.60">
        <route edges="-564108251 -564107947 -564107949 564102174 -564100225 564100226 564102390 -564102394 564102395"/>
    </vehicle>
    <vehicle id="18" depart="14.40">
        <route edges="564107990 564108249 -564108248 -564101593 -564101590 564101589 564101591 -564101592 564104842 -564104843 564105324 -564105326 564104932 564105334 -564105336 564101982 564102115 564102174 -564100225 564100226 564107330 564108588 -564108582 564102823 564102929 564102931 564103778"/>
    </vehicle>
    <vehicle id="19" depart="15.20">
        <route edges="564108070 -564108072 564103080 564116584 564116585 564116644 -564116642 564102735"/>
    </vehicle>
    <vehicle id="20" depart="16.00">
        <route edges="564105326 -564105326 564104932 564105334 -564105336 564101982 564102115 564102174 -564100225 564100226 -564100226 564100225 -564102174"/>
    </vehicle>
    <vehicle id="21" depart="16.80">
        <route edges="-564105353 564116906 -564116901 -564116900 564104855 564105340 -564105342 564107507 564112465 -564112466 -564112448 564112454 -564112455 564102185 564112480 -564112481 564107522 -564107521"/>
    </vehicle>
    <vehicle id="22" depart="17.60">
        <route edges="-564102607 564113853 -564113852 -564102604 -564116622 564116614 564105353 -564105356"/>
    </vehicle>
    <vehicle id="23" depart="18.40">
        <route edges="-564102930 -564102823 564108582 -564108588 -564107330 -564100226 564100225 -564102174 564107949 564107947 564108251 -564108250 564104988 -564104987 564107462 -564107461 564107466 -564107465"/>
    </vehicle>
    <vehicle id="24" depart="19.20">
        <route edges="564104456 -564104457 564102929 564102931 564103778 -564102936 564102935 -564116590 -564102943 564107577 564108064 -564108066"/>
    </vehicle>
    <vehicle id="25" depart="20.00">
        <route edges="-564108072 564103080 564116584 564116585 564116644 -564102935 564102936 -564103778 -564102931 -564102929 -564102823 564108582 -564108588 -564107330 -564100226 564100225 -564102174 -564102115 -564101982 564105336 -564105334 -564104932 564105326 -564105324"/>
    </vehicle>
    <vehicle id="26" depart="20.80">
        <route edges="-564107334 -564119427 564115764 -564115765 -564103719 -564104095 564107334 -564107333 -564102397 564103889 564107521 -564107522 564112481 -564112480 -564102185 564102184 564115964 -564102173 564107949 564107947 564108251 -564108250 564104988 -564104987 564107462 -564107461 564107466 -564107465 564112525"/>
    </vehicle>
    <vehicle id="27" depart="21.60">
        <route edges="564104741 -564104740 -564102231 564116897 564116902 -564116909 -564116617 564116619 564102605 -564106976 564116639 -564116590 -564102943 564107577 564108064 -564108066 -564103085 564108070 -564108072 564103080"/>
    </vehicle>
    <vehicle id="28" depart="22.40">
        <route edges="-564104842 564101592 -564101591 -564101589 564101590 564101593 564108248 -564108249 -564107990 564101764 564108011 -564108009 564105342 -564105340 -564104855 564116900 -564116897 564102231 564104740 -564104741 564107799 -564107796 -564107512 564102443 564104770 564108565 -564108561 -564106591 564106544 564106545"/>
    </vehicle>
    <vehicle id="29" depart="23.20">
        <route edges="-564104743 564104743 -564104742 564102608 564113761 564116600 564102604 564113852 -564113853 -564102603 564102602 564107801 -564107800 564104013 564108687 -564108688 -564108685 564108568 -564107330 564104969 564105002 -564105001 -564104980 564105080 564114098 -564114097 564104987 -564104988 564108250 -564108251"/>
    </vehicle>
    <vehicle id="30" depart="24.00">
        <route edges="564116902 -564116909 -564116617 564116619 564102604 564113852 -564113853 -564102603 564102602 564107801 -564107800 564104013 564108687 -564108688 -564108685 564108568 564108588 -564108582 564102823 564102930 564104492"/>
    </vehicle>
    <vehicle id="31" depart="24.80">
        <route edges="564102399 564112454 -564112455 564102184 564115964 -564102173 564107949 564107947 564108251 -564108250 564104988 -564104987 564114097 -564114098 -564105080 564104980 564105001"/>
    </vehicle>
    <vehicle id="32" depart="25.60">
        <route edges="564108009 -564108011 -564101895 564108738 -564108004 -564101884 564105337 -564105335 -564108786 -564112525 564107465"/>
    </vehicle>
    <vehicle id="33" depart="26.40">
        <route edges="-564105353 564116906 -564116901 -564116900 564104855 564105340 -564105342 564108009 -564108011 -564101900 -564101899 -564101897"/>
    </vehicle>
    <vehicle id="34" depart="27.20">
        <route edges="-564107799 564104741 -564104740 -564102231 564116897 564116902 -564116909 -564116617 564116619 564102604 564113852 -564113853 -564102603 564102602 564107801 -564107800 564107333 -564107334"/>
    </vehicle>
    <vehicle id="35" depart="28.00">
        <route edges="-564105326 564104932 564105334 -564105336 564101982 564102115 564102174 -564100225 564100226 564107330 -564108568 564108685 564108688 -564108687 -564104013 564107800 -564107801 -564102602 564102603 564113853"/>
    </vehicle>
    <vehicle id="36" depart="28.80">
        <route edges="564108255 564108258 -564108256 564112455 -564112454 564112448 564112466 -564112465 -564107507 564105342 -564105340 -564104855 564116900 -564116897 564102231 564104740 -564104741 564107799 -564107796"/>
    </vehicle>
    <vehicle id="37" depart="29.60">
        <route edges="564104776 -564104777 564107801 -564107800 564104013 564108687 -564108688 -564108685 564108568 564108588 -564108579"/>
    </vehicle>
    <vehicle id="38" depart="30.40">
        <route edges="564112448 564112466 -564112465 -564107507 564105342 -564105340 -564104855 564116900 564116902 -564116909 -564116617 564116619 564102605 -564106976 564116639 -564116647 -564116584"/>
    </vehicle>
    <vehicle id="39" depart="31.20">
        <route edges="-564107333 564107800 -564107801 -564102602 564102603 564113853 -564113852 -564102604 564102605 -564106976"/>
    </vehicle>
    <vehicle id="40" depart="32.00">
        <route edges="564102443 564104770 564108565 -564108561 -564102747 564107334 -564107332"/>
    </vehicle>
    <vehicle id="41" depart="32.80">
        <route edges="564102825 564102932 -564102931 -564102929 564104457 -564104456 564106967 564107597 -564107596 564107594 -564107593 -564104105 564108579"/>
    </vehicle>
    <vehicle id="42" depart="33.60">
        <route edges="-564108582 564102823 564102930 -564102930 -564102823 564108582 -564108588 -564107330 -564100226 564100225 -564102174 -564102115 -564101982 564105336 -564105335"/>
    </vehicle>
    <vehicle id="43" depart="34.40">
        <route edges="564119479 -564119480 564107169 -564107170 -564102603 564102602 564107801 -564107800 -564102397 564103889 564107521 -564107522 564112481 -564112480 -564102185 564108256 -564108257 -564108020 -564107499 564108005 -564108003 -564101690 -564101594 564101594"/>
    </vehicle>
    <vehicle id="44" depart="35.20">
        <route edges="-564102823 564108582 -564108588 -564108568 564108685 564108688 -564108687 -564104013 564107800 -564107801 -564102602 564102603 564107170 -564107169 564119480 -564119479 564107167 -564107166 -564102270 -564102175"/>
    </vehicle>
    <vehicle id="45" depart="36.00">
        <route edges="-564102936 564102935 -564102935 564102936 -564103778 564104032"/>
    </vehicle>
    <vehicle id="46" depart="36.80">
        <route edges="564107525 -564107524 564102399 564112448 564112466 -564112465"/>
    </vehicle>
    <vehicle id="47" depart="37.60">
        <route edges="-564102397 564103889 564107521 -564107522 564112481 -564112480 -564102185 564108256 -564108257 564108255 564108258 -564108256"/>
    </vehicle>
    <vehicle id="48" depart="38.40">
        <route edges="564119479 -564119480 564107169 -564107170 564107170 -564107169 564119480 -564119479 564107167 -564107166 -564102270 -564102175 564108009 -564108011 -564101895 564108738 -564108004 -564101884 564105337 -564105336 564101982"/>
    </vehicle>
    <vehicle id="49" depart="39.20">
        <route edges="564116598 -564116600 -564113761 -564102608 564104742 -564104743 564104770 564108565 -564108560 -564104493 564102948 564107575 -564107574 -564103084 564103085 564108066"/>
    </vehicle>
    <vehicle id="50" depart="40.00">
        <route edges="-564101591 -564101589 564101590 564101593 564108248 -564108249 -564107990 564101764 564108011 -564108009 564105342 -564105340 -564104855 564116900 564116902 -564116909 564105353"/>
    </vehicle>
    <vehicle id="51" depart="40.80">
        <route edges="564105000 -564105026 564107331 -564107330 -564100226 564100225 -564102174 564102174"/>
    </vehicle>
    <vehicle id="52" depart="41.60">
        <route edges="-564107334 -564119427 564115764 -564115765 -564103719 -564104095 564107334 564108049 564108585 -564108582 564102823 564102930 564104492"/>
    </vehicle>
    <vehicle id="53" depart="42.40">
        <route edges="-564102943 564102943 564116590 -564102935 564102936 -564102934 -564102831 564119425 -564102607 564107170 -564107169 564119480 -564119479 564107167 -564107166 -564102270 -564102175 564108009 -564108011 -564101895 564108738 -564108004 -564101884 564105337 -564105335 -564108786 -564112525"/>
    </vehicle>
    <vehicle id="54" depart="43.20">
        <route edges="-564115765 -564103719 -564104095 564107334 -564107333 -564102397 564103889 564107521 -564107522 564112481 -564112480 -564102185 564102184 564115964 -564102173 564107949 564107947 564108251 -564108250 564104988 -564104987 564114097"/>
    </vehicle>
    <vehicle id="55" depart="44.00">
        <route edges="564108255 564108258 -564108256 564102185 564112480 -564112481 564107522 -564107521 -564103889 564107803 -564107804 564104776 -564104777 564107801 -564107800 564107333 -564107332"/>
    </vehicle>
    <vehicle id="56" depart="44.80">
        <route edges="564101590 564101593 564108248 -564108249 -564107990 564101764 -564101895 564108738 -564108004 -564101884 564105337 -564105334 -564104932"/>
    </vehicle>
    <vehicle id="57" depart="45.60">
        <route edges="564108786 564105335 -564105335 -564108786 -564112525 564107465 -564107466 564107461 -564107462 564104987 -564104988 564108250"/>
    </vehicle>
    <vehicle id="58" depart="46.40">
        <route edges="-564107574 -564103084 564103085 564108066 -564108064 -564107577 564102943 564116590 -564102935 564102936 -564103778 -564102931 -564102929 564102930 564104492"/>
    </vehicle>
    <vehicle id="60" depart="48.00">
        <route edges="564107333 564108049 564108585 -564108588 -564107330 564102390 -564102394 564102395 564103889 564107521 -564107522 564112481 -564112480 -564102185 564102184"/>
    </vehicle>
    <vehicle id="61" depart="48.80">
        <route edges="564107466 -564107465 564112525 564108786 564105335 -564105336 564101982 564102115"/>
    </vehicle>
    <vehicle id="62" depart="49.60">
        <route edges="-564100225 564100226 564102390 -564102394 564102395 564107803 -564107804"/>
    </vehicle>
    <vehicle id="63" depart="50.40">
        <route edges="-564101596 564105325 -564105324 564104843 -564104842 564101592 564101594 564101690 564108003 -564108005 564107499 564108020 564108257 -564108256 564102185 564112480"/>
    </vehicle>
    <vehicle id="64" depart="51.20">
        <route edges="564108256 -564108257 -564108020 -564107499 564108005 -564108003 -564101690 -564101594 -564101592 564104842 -564104843 564105324 -564105325 564101596 564104106 564107991"/>
    </vehicle>
    <vehicle id="65" depart="52.00">
        <route edges="-564107594 564107596 -564107597 -564106967 564104456 -564104457 -564102823 564108582 -564108585 -564108049 -564107333 -564102397 -564102395 564102394 -564102390"/>
    </vehicle>
    <vehicle id="66" depart="52.80">
        <route edges="564108256 -564108257 564108255 564108258 -564108256 564112455 -564112454 564112448 564112466 -564112465 -564107507 564105342 -564105340 -564104855 564116900 564116902 -564116909 -564116617 564116619 564102605 564114021"/>
    </vehicle>
    <vehicle id="67" depart="53.60">
        <route edges="-564102747 564107334 -564107333 564107800 -564107801 -564102602 564102603 564102607 -564119425"/>
    </vehicle>
    <vehicle id="68" depart="54.40">
        <route edges="-564102404 564119479 -564119480 564107169 -564107170 564102607 564107334 -564107332 564102825 564102932 564104032 -564106550 -564102825 564107332"/>
    </vehicle>
    <vehicle id="69" depart="55.20">
        <route edges="564107334 -564107333 564107800 -564107801 -564102602 564102603 564102607 -564119427 564115764 -564115765 -564103719"/>
    </vehicle>
    <vehicle id="70" depart="56.00">
        <route edges="-564116897 564102231 564104740 -564104741 564107799 -564107796 -564107512 564102443 564104743 -564104742 564102608 564113761 564116600 564102604 564113852 -564113853 -564102603 564102602 564107801 -564107800 -564102397 -564102395 564102394"/>
    </vehicle>
    <vehicle id="71" depart="56.80">
        <route edges="-564107333 -564102397 -564102395 564102394 -564102390 564104969 564105002 -564105001 -564104980 564105080 564114098 -564114097 564104987 -564104988 564108250"/>
    </vehicle>
    <vehicle id="72" depart="57.60">
        <route edges="-564112455 564108256 -564108257 -564108020 -564107499 564108005 -564108003 -564101690 -564101594 -564101592 564104842 -564104843 564105324 -564105325"/>
    </vehicle>
    <vehicle id="73" depart="58.40">
        <route edges="564102174 -564100225 564100226 564107330 -564108568 564108685 564108688 -564108687 -564104013 564107800 -564107801 -564102602 564102603 564102607 -564119425 564102831 564106549"/>
    </vehicle>
    <vehicle id="74" depart="59.20">
        <route edges="-564105080 564107455 -564107456 564105093 -564105094 564107593 -564107594 564107596 -564107597"/>
    </vehicle>
    <vehicle id="75" depart="60.00">
        <route edges="564119425 -564102607 564113853 -564113852 -564102604 -564116600 -564113761 -564102608 564104742"/>
    </vehicle>
    <vehicle id="76" depart="60.80">
        <route edges="-564113761 -564102608 564104742 -564104743 -564102443 564107512 564107796 -564107799 564104741 -564104740 -564102231 564116897 -564116900 564104855 564105340 -564105342 564107507 564112465 -564112466 -564112448 564112454 -564112455 564108256 -564108257 -564108020 -564107499 564108005 -564108003 -564101690 -564101594 -564101591 -564101589 564101590 564101593 564108248 -564108249 -564107990 564101764"/>
    </vehicle>
    <vehicle id="77" depart="61.60">
        <route edges="-564103084 564103085 564108066 -564108064 -564107577 564102943 564116590 -564102935 564102936 -564102934 -564102831 564119425 -564102607 564107170 -564107169 564119480 -564119479 564107167 -564107166 -564102270 -564102175 564105342 -564105340"/>
    </vehicle>
    <vehicle id="78" depart="62.40">
        <route edges="-564108003 -564101690 -564101594 564101594 564101690 564108003 -564108005 564107499 564108020 564108257 -564108256 564102184 564115964 -564102173 564102174 -564100225 564100226 564107330 564108588 -564108582 564102823 564102929"/>
    </vehicle>
    <vehicle id="79" depart="63.20">
        <route edges="-564105356 -564102404 564107167 -564107166 -564102270 -564102175 564108009 -564108011 -564101895 564108738 -564108004 -564101884 564105337 -564105336"/>
    </vehicle>
    <vehicle id="80" depart="64.00">
        <route edges="-564102443 564107512 564107796 -564107799 564104741 -564104740 -564102231 564116897 -564116900 564104855 564105340 -564105342 564107507 564112465 -564112466 -564112448 564112454 -564112455 564102184 564115964 -564102173 564102174 -564100225 564100226 564107330 564108588 -564108579 564104105"/>
    </vehicle>
    <vehicle id="81" depart="64.80">
        <route edges="-564105353 -564116617 564116619 564102605 564102735 -564104095 564107334 564108049 564108585 -564108588 -564108568 564108685"/>
    </vehicle>
    <vehicle id="82" depart="65.60">
        <route edges="564108066 -564108064 -564107577 564102943 564116590 -564116642 564116598 -564116622 564116614 564105353 -564105356 -564102404"/>
    </vehicle>
    <vehicle id="83" depart="66.40">
        <route edges="-564106560 564116585 564116644 -564116642 564116598 -564116622 564116614 564116906 -564116901 -564116900 564104855"/>
    </vehicle>
    <vehicle id="84" depart="67.20">
        <route edges="-564105334 -564104932 564105326 -564105324 564104843 -564104842 564101592 564101594 564101690 564108003 -564108005 564107499 564108020 564108257 -564108256 564102185 564112480 -564112481 564107522 -564107521 -564103889"/>
    </vehicle>
    <vehicle id="85" depart="68.00">
        <route edges="564113761 564116600 -564116622 564116614 -564116617 564116619 564102605"/>
    </vehicle>
    <vehicle id="86" depart="68.80">
        <route edges="-564116647 -564116584 -564103080 564108072 -564108070 564103085 564108066 -564108064 -564107577 564102943 564116590 -564102935 564102936 -564102934 -564102831 564119425 -564102607 564107170 -564107169 564119480 -564119479 564107167 -564107166 -564102270 -564102175 564107507"/>
    </vehicle>
    <vehicle id="87" depart="69.60">
        <route edges="564107596 -564107597 -564106967 564104456 -564104457 -564102823 564108582 -564108588 -564107331 564105026 -564105000"/>
    </vehicle>
    <vehicle id="88" depart="70.40">
        <route edges="-564102831 564119425 -564102607 564107170 -564107169 564119480 -564119479 -564102398 564102399 564112490 -564112489"/>
    </vehicle>
    <vehicle id="89" depart="71.20">
        <route edges="-564112455 564108256 -564108257 564108255 564108258 -564108256 564112455 -564112454 564112448 564112466 -564112465 -564107507 564105342 -564105340 -564104855 564116900 564116902 -564116909 -564116617"/>
    </vehicle>
    <vehicle id="90" depart="72.00">
        <route edges="564106545 -564102732 564102735 -564104095 564107334 -564107333 -564102397 -564102395 564102394 -564102390 564104969"/>
    </vehicle>
    <vehicle id="91" depart="72.80">
        <route edges="564116897 564116902 -564116909 -564116617 564116619 564102605 -564106976 564116639 -564102935 564102936 -564102934 -564102831"/>
    </vehicle>
    <vehicle id="92" depart="73.60">
        <route edges="-564108585 -564108049 -564107333 -564102397 564103889 564107521 -564107522 564112481 -564112480 -564102185 564108256 -564108257 -564108020 -564107499 564108005 -564108003"/>
    </vehicle>
    <vehicle id="93" depart="74.40">
        <route edges="564108070 -564108072 564103080 564116584 564116585 564116644 -564102935 564102936 -564102934 -564102831 564119425 -564102607 564107170 -564107169 564119480 -564119479 564107167 -564107166"/>
    </vehicle>
    <vehicle id="94" depart="75.20">
        <route edges="-564105001 -564104980 564107455 -564107456 564105093 -564105094 -564104105 564108579 -564108585 -564108049 -564107334 -564119427 564115764 -564115765 564106981 564114021 -564114020 564114025 -564114026"/>
    </vehicle>
    <vehicle id="95" depart="76.00">
        <route edges="-564112455 564102184 564115964 -564102173 564107949 564107947 564108251 -564108250 564104988 -564104987 564107462 -564107461 564107466 -564107465"/>
    </vehicle>
    <vehicle id="96" depart="76.80">
        <route edges="-564107167 564119479 -564119480 564107169 -564107170 -564102603 564102602 564107801 -564107800 -564102397 564103889 564107521 -564107522 564112481 -564112480 -564102185 564112455"/>
    </vehicle>
    <vehicle id="97" depart="77.60">
        <route edges="-564113853 564102607 -564119427 564115764 -564115765 564106981 564114021 -564114020 564114025 -564114026 -564108050 564108053 -564108055 564107577 564108064 -564108066 -564103085 564108070"/>
    </vehicle>
    <vehicle id="98" depart="78.40">
        <route edges="564102394 -564102390 -564100226 564100225 -564102174 564102173 -564115964 -564102184"/>
    </vehicle>
    <vehicle id="99" depart="79.20">
        <route edges="564119480 -564119479 564107167 -564107166 -564102270 -564102175 564108009 -564108011 -564101764 564107990 564108249 -564108248 -564101593 -564101590 564101589 564101591 564101594 564101690 564108003"/>
    </vehicle>
    <vehicle id="100" depart="80.00">
        <route edges="564116590 -564102935 564102936 -564102934 -564102831 564119425 -564102607 564107170 -564107169 564119480 -564119479 -564102398 564102399 564112448 564112466"/>
    </vehicle>
    <vehicle id="101" depart="80.80">
        <route edges="564108020 564108257 -564108256 564112455 -564112454 564112448 564112466 -564112465 -564107507 564105342 -564105340 -564104855 564116900 564116902 -564116909 -564116617 564116619 -564116600 -564113761 -564102608 564104742 -564104743"/>
    </vehicle>
    <vehicle id="102" depart="81.60">
        <route edges="-564119425 564102831 564106549 -564103986 -564103778 -564102931 -564102929 -564102823 564108582 -564108588 -564107330 -564100226 564100225 -564102174 -564102115 -564101982 564105336 -564105334 -564104932 564105326 -564105326"/>
    </vehicle>
    <vehicle id="103" depart="82.40">
        <route edges="-564108585 -564108049 -564107333 -564102397 -564102395 564102394 -564102390"/>
    </vehicle>
    <vehicle id="104" depart="83.20">
        <route edges="-564108251 -564107947 -564107949 564102174 -564100225 564100226 564107330 -564108568 564108685 564108688 -564108687 -564104013 564107800 -564107801 -564102602 564102603 564113853 -564113852 -564102604 -564116600 -564113761 -564102608 564104742 -564104743 -564102443 564107512 564107796 -564107799 564104741 -564104740 -564102231 564116897"/>
    </vehicle>
    <vehicle id="105" depart="84.00">
        <route edges="-564107333 -564102397 564103889 564107521 -564107522 564112481 -564112480 -564102185 564112455 -564112454 564112448 564112466 -564112465 -564107507 564107507"/>
    </vehicle>
    <vehicle id="106" depart="84.80">
        <route edges="-564115765 -564103719 -564104095 -564102607 564107170 -564107169 564119480 -564119479 -564102398 564102399 564112448 564112466 -564112465"/>
    </vehicle>
    <vehicle id="107" depart="85.60">
        <route edges="564114098 -564114097 564104987 -564104988 564108250 -564108251 -564107947 -564107949 564102174 -564100225 564100226 564107330 -564108568 564108685 564108688 -564108687 -564104013 564107800 -564107801 -564102602 564102603 564107170 -564107169 564119480 -564119479 564119479"/>
    </vehicle>
    <vehicle id="108" depart="86.40">
        <route edges="564102399 564112448 564112466 -564112465 -564107507 564105342"/>
    </vehicle>
    <vehicle id="109" depart="87.20">
        <route edges="-564104493 564102948 564107575 -564107574"/>
    </vehicle>
    <vehicle id="110" depart="88.00">
        <route edges="564116590 -564102935 564102936 -564102934 -564102831 564119425 -564102607 564107170 -564107169 564119480 -564119479 564119479 -564119480 564107169 -564107170 564102607 564102747"/>
    </vehicle>
    <vehicle id="111" depart="88.80">
        <route edges="564102185 564112480 -564112481 564107522 -564107521 -564103889 564107803 -564107804 564104776 -564104777 -564102602 564102603 564107170"/>
    </vehicle>
    <vehicle id="112" depart="89.60">
        <route edges="-564102390 564107330 -564108568 564108685 564108688 -564108687 -564104013 564107333 -564107332 564102825"/>
    </vehicle>
    <vehicle id="113" depart="90.40">
        <route edges="564101591 564101594 564101690 564108003 -564108005 564107499 564108020 564108257 -564108256 564112455 -564112454 564112448 564112466 -564112465 -564107507 564105342 -564105340 -564104855 564116900 564116902 -564116909 -564116617 564116619 564102605 564114021 -564114020 564114025 -564114026 -564108050 564108053"/>
    </vehicle>
    <vehicle id="114" depart="91.20">
        <route edges="-564104741 564107799 -564107796 -564107512 564102443 564104743 -564104742 564102608 564113761 564116600 564102604 564113852 -564113853 564107170 -564107169 564119480 -564119479 564107167 -564107166 -564102270 -564102175 564107507 564112465 -564112466 -564112448 564112454 -564112455 564102184 564115964"/>
    </vehicle>
    <vehicle id="115" depart="92.00">
        <route edges="-564102607 564107170 -564107169 564119480 -564119479 564107167 -564107166 -564102270 -564102175 564107507 564112465 -564112466 -564112448 564112454 -564112455 564102184 564115964 -564102173 564107949 564107947 564108251 -564108250 564104988 -564104987"/>
    </vehicle>
    <vehicle id="116" depart="92.80">
        <route edges="564102932 -564102931 -564102929 -564102823 564108582 -564108579 564104105 564105094 -564105093 564107456 -564107455 564104980"/>
    </vehicle>
    <vehicle id="118" depart="94.40">
        <route edges="564108565 -564108561 -564106591 564106544 564106545 -564102732 -564106976"/>
    </vehicle>
    <vehicle id="119" depart="95.20">
        <route edges="564102931 564103778"/>
    </vehicle>